Failed to import sqlalchemy or m5.stats.sql. SQL will not be enabled.
gem5 Simulator System.  http://gem5.org
gem5 is copyrighted software; use the --copyright option for details.

gem5 compiled Jun 22 2017 10:29:20
gem5 started Jun 29 2017 14:53:15
gem5 executing on neclab1
command line: /home/bachelor/andrew0325/gem5-aladdin/src/aladdin//../../build/X86_MOESI_CMP_directory/gem5.opt --debug-flags=WorkItems,HybridDatapath,DMA --outdir=/home/bachelor/andrew0325/gem5-aladdin/src/aladdin//TestSuite/stencil/stencil2d-transpose/outputs /home/bachelor/andrew0325/gem5-aladdin/src/aladdin//../../configs/aladdin/aladdin_se.py --num-cpus=1 --enable_prefetchers --num-mems=2 --mem-size=1GB --mem-type=LPDDR3_1600_x32 --cpu-clock=2GHz --sys-clock=1GHz --cpu-type=detailed --ruby --topology=Cluster --caches --l1d_size=64kB --l1i_size=32kB --l1d_assoc=2 --l1i_assoc=2 --l1_mshrs=64 --l2cache --num-l2caches=1 --l2_size=16MB --l2_assoc=8 --l2_mshrs=64 --l2_tag_latency=1 --l2_data_latency=20 --num-dirs=1 --dir_size=2MB --dir_mshrs=32 --dir_latency=4 --dma_outstanding_requests=8 --bus_bw=4096 --xbar_width=4096 --accel_cfg_file=/home/bachelor/andrew0325/gem5-aladdin/src/aladdin//TestSuite/stencil/stencil2d-transpose/cacheForwarding.cfg --enableCtr=0 --work-end-exit-count=1 --cmd /home/bachelor/andrew0325/gem5-aladdin/src/aladdin//TestSuite/stencil/stencil2d-transpose/stencil-stencil2d-gem5-accel

name:detailed, real_name:DerivO3CPU
Global frequency set at 1000000000000 ticks per second
root
system
system.clk_domain
system.voltage_domain
system.mem_ctrls0
system.mem_ctrls1
system.cpu
system.cpu.branchPred
system.cpu_clk_domain
system.cpu_voltage_domain
system.cpu.dtb
system.cpu.dtb.walker
system.cpu.fuPool
system.cpu.fuPool.FUList0
system.cpu.fuPool.FUList0.opList
system.cpu.fuPool.FUList1
system.cpu.fuPool.FUList1.opList0
system.cpu.fuPool.FUList1.opList1
system.cpu.fuPool.FUList2
system.cpu.fuPool.FUList2.opList0
system.cpu.fuPool.FUList2.opList1
system.cpu.fuPool.FUList2.opList2
system.cpu.fuPool.FUList3
system.cpu.fuPool.FUList3.opList0
system.cpu.fuPool.FUList3.opList1
system.cpu.fuPool.FUList3.opList2
system.cpu.fuPool.FUList4
system.cpu.fuPool.FUList4.opList
system.cpu.fuPool.FUList5
system.cpu.fuPool.FUList5.opList00
system.cpu.fuPool.FUList5.opList01
system.cpu.fuPool.FUList5.opList02
system.cpu.fuPool.FUList5.opList03
system.cpu.fuPool.FUList5.opList04
system.cpu.fuPool.FUList5.opList05
system.cpu.fuPool.FUList5.opList06
system.cpu.fuPool.FUList5.opList07
system.cpu.fuPool.FUList5.opList08
system.cpu.fuPool.FUList5.opList09
system.cpu.fuPool.FUList5.opList10
system.cpu.fuPool.FUList5.opList11
system.cpu.fuPool.FUList5.opList12
system.cpu.fuPool.FUList5.opList13
system.cpu.fuPool.FUList5.opList14
system.cpu.fuPool.FUList5.opList15
system.cpu.fuPool.FUList5.opList16
system.cpu.fuPool.FUList5.opList17
system.cpu.fuPool.FUList5.opList18
system.cpu.fuPool.FUList5.opList19
system.cpu.fuPool.FUList6
system.cpu.fuPool.FUList6.opList
system.cpu.fuPool.FUList7
system.cpu.fuPool.FUList7.opList0
system.cpu.fuPool.FUList7.opList1
system.cpu.fuPool.FUList8
system.cpu.fuPool.FUList8.opList
system.cpu.interrupts
system.cpu.apic_clk_domain
system.cpu.isa
system.cpu.itb
system.cpu.itb.walker
system.cpu.tracer
system.cpu.workload
system.datapaths
system.datapaths.clk_domain
-------------------------------
      Setting ScratchPad       
-------------------------------
      0: system.datapaths.dma: Setting up DMA with transaction chunk size 64
system.dvfs_handler
system.ruby
system.ruby.accel_l1_cntrl1
system.ruby.accel_l1_cntrl1.L1Dcache
system.ruby.accel_l1_cntrl1.L1Icache
system.ruby.accel_l1_cntrl1.sequencer
system.ruby.crossbars
system.ruby.dir_cntrl0
system.ruby.dir_cntrl0.directory
system.ruby.dir_cntrl0.probeFilter
system.ruby.dma_cntrl0
system.ruby.dma_cntrl0.dma_sequencer
system.ruby.l1_cntrl0
system.ruby.l1_cntrl0.L1Dcache
system.ruby.l1_cntrl0.L1Icache
system.ruby.l1_cntrl0.sequencer
system.ruby.l2_cntrl0
system.ruby.l2_cntrl0.L2cache
system.ruby.memctrl_clk_domain
system.ruby.network
system.ruby.network.ext_links0
system.ruby.network.ext_links0.int_node
system.ruby.network.ext_links1
system.ruby.network.ext_links2
system.ruby.network.ext_links3
system.ruby.network.ext_links3.int_node
system.ruby.network.ext_links4
system.ruby.network.int_links
system.sys_port_proxy
Master port system_port cannot bind to system.sys_port_proxy.slave0
Master port system.cpu.dcache_port cannot bind to system.ruby.l1_cntrl0.sequencer.slave1
Master port system.cpu.icache_port cannot bind to system.ruby.l1_cntrl0.sequencer.slave0
Master port system.cpu.dtb.walker.port cannot bind to system.ruby.l1_cntrl0.sequencer.slave4
Master port system.cpu.interrupts.int_master cannot bind to system.ruby.l1_cntrl0.sequencer.slave2
Master port system.cpu.itb.walker.port cannot bind to system.ruby.l1_cntrl0.sequencer.slave3
Master port system.datapaths.cache_port cannot bind to system.ruby.accel_l1_cntrl1.sequencer.slave0
Master port system.datapaths.dma cannot bind to system.ruby.dma_cntrl0.dma_sequencer.slave
Master port system.ruby.crossbars.master[0] cannot bind to system.mem_ctrls0.port
Master port system.ruby.crossbars.master[1] cannot bind to system.mem_ctrls1.port
Master port system.ruby.dir_cntrl0.memory cannot bind to system.ruby.crossbars.slave[1]
Master port system.ruby.dma_cntrl0.memory cannot bind to system.ruby.crossbars.slave[0]
Master port system.ruby.l1_cntrl0.sequencer.master0 cannot bind to system.cpu.interrupts.pio
Master port system.ruby.l1_cntrl0.sequencer.master1 cannot bind to system.cpu.interrupts.int_slave
      0: system.datapaths: Registering stats.
**** REAL SIMULATION ****
info: Entering event queue @ 0.  Starting simulation...
info: Increasing stack size by one page.
info: Received mapping for array avail at vaddr 0x6bc804 of length 8.
30869000: system.datapaths: Inserting array label mapping avail -> vpn 0x6bc804.
30869000: system.datapaths: Mapping vaddr 0x6bc804 -> paddr 0xbd804.
30869000: system.datapaths: Inserting TLB entry vpn 0x6bc000 -> ppn 0xbd000.
info: Received mapping for array enable at vaddr 0x6bc7f8 of length 8.
30918500: system.datapaths: Inserting array label mapping enable -> vpn 0x6bc7f8.
30918500: system.datapaths: Mapping vaddr 0x6bc7f8 -> paddr 0xbd7f8.
30918500: system.datapaths: Inserting TLB entry vpn 0x6bc000 -> ppn 0xbd000.
info: Received mapping for array orig at vaddr 0x6bfbc0 of length 131108.
30962000: system.datapaths: Inserting array label mapping orig -> vpn 0x6bfbc0.
30962000: system.datapaths: Mapping vaddr 0x6bfbc0 -> paddr 0xc3bc0.
30962000: system.datapaths: Inserting TLB entry vpn 0x6bf000 -> ppn 0xc3000.
30962000: system.datapaths: Mapping vaddr 0x6c0bc0 -> paddr 0xc4bc0.
30962000: system.datapaths: Inserting TLB entry vpn 0x6c0000 -> ppn 0xc4000.
30962000: system.datapaths: Mapping vaddr 0x6c1bc0 -> paddr 0xc5bc0.
30962000: system.datapaths: Inserting TLB entry vpn 0x6c1000 -> ppn 0xc5000.
30962000: system.datapaths: Mapping vaddr 0x6c2bc0 -> paddr 0xc6bc0.
30962000: system.datapaths: Inserting TLB entry vpn 0x6c2000 -> ppn 0xc6000.
30962000: system.datapaths: Mapping vaddr 0x6c3bc0 -> paddr 0xc7bc0.
30962000: system.datapaths: Inserting TLB entry vpn 0x6c3000 -> ppn 0xc7000.
30962000: system.datapaths: Mapping vaddr 0x6c4bc0 -> paddr 0xc8bc0.
30962000: system.datapaths: Inserting TLB entry vpn 0x6c4000 -> ppn 0xc8000.
30962000: system.datapaths: Mapping vaddr 0x6c5bc0 -> paddr 0xc9bc0.
30962000: system.datapaths: Inserting TLB entry vpn 0x6c5000 -> ppn 0xc9000.
30962000: system.datapaths: Mapping vaddr 0x6c6bc0 -> paddr 0xcabc0.
30962000: system.datapaths: Inserting TLB entry vpn 0x6c6000 -> ppn 0xca000.
30962000: system.datapaths: Mapping vaddr 0x6c7bc0 -> paddr 0xcbbc0.
30962000: system.datapaths: Inserting TLB entry vpn 0x6c7000 -> ppn 0xcb000.
30962000: system.datapaths: Mapping vaddr 0x6c8bc0 -> paddr 0xccbc0.
30962000: system.datapaths: Inserting TLB entry vpn 0x6c8000 -> ppn 0xcc000.
30962000: system.datapaths: Mapping vaddr 0x6c9bc0 -> paddr 0xcdbc0.
30962000: system.datapaths: Inserting TLB entry vpn 0x6c9000 -> ppn 0xcd000.
30962000: system.datapaths: Mapping vaddr 0x6cabc0 -> paddr 0xcebc0.
30962000: system.datapaths: Inserting TLB entry vpn 0x6ca000 -> ppn 0xce000.
30962000: system.datapaths: Mapping vaddr 0x6cbbc0 -> paddr 0xcfbc0.
30962000: system.datapaths: Inserting TLB entry vpn 0x6cb000 -> ppn 0xcf000.
30962000: system.datapaths: Mapping vaddr 0x6ccbc0 -> paddr 0xd0bc0.
30962000: system.datapaths: Inserting TLB entry vpn 0x6cc000 -> ppn 0xd0000.
30962000: system.datapaths: Mapping vaddr 0x6cdbc0 -> paddr 0xd1bc0.
30962000: system.datapaths: Inserting TLB entry vpn 0x6cd000 -> ppn 0xd1000.
30962000: system.datapaths: Mapping vaddr 0x6cebc0 -> paddr 0xd2bc0.
30962000: system.datapaths: Inserting TLB entry vpn 0x6ce000 -> ppn 0xd2000.
30962000: system.datapaths: Mapping vaddr 0x6cfbc0 -> paddr 0xd3bc0.
30962000: system.datapaths: Inserting TLB entry vpn 0x6cf000 -> ppn 0xd3000.
30962000: system.datapaths: Mapping vaddr 0x6d0bc0 -> paddr 0xd4bc0.
30962000: system.datapaths: Inserting TLB entry vpn 0x6d0000 -> ppn 0xd4000.
30962000: system.datapaths: Mapping vaddr 0x6d1bc0 -> paddr 0xd5bc0.
30962000: system.datapaths: Inserting TLB entry vpn 0x6d1000 -> ppn 0xd5000.
30962000: system.datapaths: Mapping vaddr 0x6d2bc0 -> paddr 0xd6bc0.
30962000: system.datapaths: Inserting TLB entry vpn 0x6d2000 -> ppn 0xd6000.
30962000: system.datapaths: Mapping vaddr 0x6d3bc0 -> paddr 0xd7bc0.
30962000: system.datapaths: Inserting TLB entry vpn 0x6d3000 -> ppn 0xd7000.
30962000: system.datapaths: Mapping vaddr 0x6d4bc0 -> paddr 0xd8bc0.
30962000: system.datapaths: Inserting TLB entry vpn 0x6d4000 -> ppn 0xd8000.
30962000: system.datapaths: Mapping vaddr 0x6d5bc0 -> paddr 0xd9bc0.
30962000: system.datapaths: Inserting TLB entry vpn 0x6d5000 -> ppn 0xd9000.
30962000: system.datapaths: Mapping vaddr 0x6d6bc0 -> paddr 0xdabc0.
30962000: system.datapaths: Inserting TLB entry vpn 0x6d6000 -> ppn 0xda000.
30962000: system.datapaths: Mapping vaddr 0x6d7bc0 -> paddr 0xdbbc0.
30962000: system.datapaths: Inserting TLB entry vpn 0x6d7000 -> ppn 0xdb000.
30962000: system.datapaths: Mapping vaddr 0x6d8bc0 -> paddr 0xdcbc0.
30962000: system.datapaths: Inserting TLB entry vpn 0x6d8000 -> ppn 0xdc000.
30962000: system.datapaths: Mapping vaddr 0x6d9bc0 -> paddr 0xddbc0.
30962000: system.datapaths: Inserting TLB entry vpn 0x6d9000 -> ppn 0xdd000.
30962000: system.datapaths: Mapping vaddr 0x6dabc0 -> paddr 0xdebc0.
30962000: system.datapaths: Inserting TLB entry vpn 0x6da000 -> ppn 0xde000.
30962000: system.datapaths: Mapping vaddr 0x6dbbc0 -> paddr 0xdfbc0.
30962000: system.datapaths: Inserting TLB entry vpn 0x6db000 -> ppn 0xdf000.
30962000: system.datapaths: Mapping vaddr 0x6dcbc0 -> paddr 0xe0bc0.
30962000: system.datapaths: Inserting TLB entry vpn 0x6dc000 -> ppn 0xe0000.
30962000: system.datapaths: Mapping vaddr 0x6ddbc0 -> paddr 0xe1bc0.
30962000: system.datapaths: Inserting TLB entry vpn 0x6dd000 -> ppn 0xe1000.
30962000: system.datapaths: Mapping vaddr 0x6debc0 -> paddr 0xe2bc0.
30962000: system.datapaths: Inserting TLB entry vpn 0x6de000 -> ppn 0xe2000.
30962000: system.datapaths: Mapping vaddr 0x6dfbc0 -> paddr 0xe3bc0.
30962000: system.datapaths: Inserting TLB entry vpn 0x6df000 -> ppn 0xe3000.
info: Received mapping for array filter at vaddr 0x6cfbc0 of length 131108.
31003500: system.datapaths: Inserting array label mapping filter -> vpn 0x6cfbc0.
31003500: system.datapaths: Mapping vaddr 0x6cfbc0 -> paddr 0xd3bc0.
31003500: system.datapaths: Inserting TLB entry vpn 0x6cf000 -> ppn 0xd3000.
31003500: system.datapaths: Mapping vaddr 0x6d0bc0 -> paddr 0xd4bc0.
31003500: system.datapaths: Inserting TLB entry vpn 0x6d0000 -> ppn 0xd4000.
31003500: system.datapaths: Mapping vaddr 0x6d1bc0 -> paddr 0xd5bc0.
31003500: system.datapaths: Inserting TLB entry vpn 0x6d1000 -> ppn 0xd5000.
31003500: system.datapaths: Mapping vaddr 0x6d2bc0 -> paddr 0xd6bc0.
31003500: system.datapaths: Inserting TLB entry vpn 0x6d2000 -> ppn 0xd6000.
31003500: system.datapaths: Mapping vaddr 0x6d3bc0 -> paddr 0xd7bc0.
31003500: system.datapaths: Inserting TLB entry vpn 0x6d3000 -> ppn 0xd7000.
31003500: system.datapaths: Mapping vaddr 0x6d4bc0 -> paddr 0xd8bc0.
31003500: system.datapaths: Inserting TLB entry vpn 0x6d4000 -> ppn 0xd8000.
31003500: system.datapaths: Mapping vaddr 0x6d5bc0 -> paddr 0xd9bc0.
31003500: system.datapaths: Inserting TLB entry vpn 0x6d5000 -> ppn 0xd9000.
31003500: system.datapaths: Mapping vaddr 0x6d6bc0 -> paddr 0xdabc0.
31003500: system.datapaths: Inserting TLB entry vpn 0x6d6000 -> ppn 0xda000.
31003500: system.datapaths: Mapping vaddr 0x6d7bc0 -> paddr 0xdbbc0.
31003500: system.datapaths: Inserting TLB entry vpn 0x6d7000 -> ppn 0xdb000.
31003500: system.datapaths: Mapping vaddr 0x6d8bc0 -> paddr 0xdcbc0.
31003500: system.datapaths: Inserting TLB entry vpn 0x6d8000 -> ppn 0xdc000.
31003500: system.datapaths: Mapping vaddr 0x6d9bc0 -> paddr 0xddbc0.
31003500: system.datapaths: Inserting TLB entry vpn 0x6d9000 -> ppn 0xdd000.
31003500: system.datapaths: Mapping vaddr 0x6dabc0 -> paddr 0xdebc0.
31003500: system.datapaths: Inserting TLB entry vpn 0x6da000 -> ppn 0xde000.
31003500: system.datapaths: Mapping vaddr 0x6dbbc0 -> paddr 0xdfbc0.
31003500: system.datapaths: Inserting TLB entry vpn 0x6db000 -> ppn 0xdf000.
31003500: system.datapaths: Mapping vaddr 0x6dcbc0 -> paddr 0xe0bc0.
31003500: system.datapaths: Inserting TLB entry vpn 0x6dc000 -> ppn 0xe0000.
31003500: system.datapaths: Mapping vaddr 0x6ddbc0 -> paddr 0xe1bc0.
31003500: system.datapaths: Inserting TLB entry vpn 0x6dd000 -> ppn 0xe1000.
31003500: system.datapaths: Mapping vaddr 0x6debc0 -> paddr 0xe2bc0.
31003500: system.datapaths: Inserting TLB entry vpn 0x6de000 -> ppn 0xe2000.
31003500: system.datapaths: Mapping vaddr 0x6dfbc0 -> paddr 0xe3bc0.
31003500: system.datapaths: Inserting TLB entry vpn 0x6df000 -> ppn 0xe3000.
31003500: system.datapaths: Mapping vaddr 0x6e0bc0 -> paddr 0xe3bc0.
31003500: system.datapaths: Inserting TLB entry vpn 0x6e0000 -> ppn 0xe3000.
31003500: system.datapaths: Mapping vaddr 0x6e1bc0 -> paddr 0xe3bc0.
31003500: system.datapaths: Inserting TLB entry vpn 0x6e1000 -> ppn 0xe3000.
31003500: system.datapaths: Mapping vaddr 0x6e2bc0 -> paddr 0xe3bc0.
31003500: system.datapaths: Inserting TLB entry vpn 0x6e2000 -> ppn 0xe3000.
31003500: system.datapaths: Mapping vaddr 0x6e3bc0 -> paddr 0xe3bc0.
31003500: system.datapaths: Inserting TLB entry vpn 0x6e3000 -> ppn 0xe3000.
31003500: system.datapaths: Mapping vaddr 0x6e4bc0 -> paddr 0xe3bc0.
31003500: system.datapaths: Inserting TLB entry vpn 0x6e4000 -> ppn 0xe3000.
31003500: system.datapaths: Mapping vaddr 0x6e5bc0 -> paddr 0xe3bc0.
31003500: system.datapaths: Inserting TLB entry vpn 0x6e5000 -> ppn 0xe3000.
31003500: system.datapaths: Mapping vaddr 0x6e6bc0 -> paddr 0xe3bc0.
31003500: system.datapaths: Inserting TLB entry vpn 0x6e6000 -> ppn 0xe3000.
31003500: system.datapaths: Mapping vaddr 0x6e7bc0 -> paddr 0xe3bc0.
31003500: system.datapaths: Inserting TLB entry vpn 0x6e7000 -> ppn 0xe3000.
31003500: system.datapaths: Mapping vaddr 0x6e8bc0 -> paddr 0xe3bc0.
31003500: system.datapaths: Inserting TLB entry vpn 0x6e8000 -> ppn 0xe3000.
31003500: system.datapaths: Mapping vaddr 0x6e9bc0 -> paddr 0xe3bc0.
31003500: system.datapaths: Inserting TLB entry vpn 0x6e9000 -> ppn 0xe3000.
31003500: system.datapaths: Mapping vaddr 0x6eabc0 -> paddr 0xe3bc0.
31003500: system.datapaths: Inserting TLB entry vpn 0x6ea000 -> ppn 0xe3000.
31003500: system.datapaths: Mapping vaddr 0x6ebbc0 -> paddr 0xe3bc0.
31003500: system.datapaths: Inserting TLB entry vpn 0x6eb000 -> ppn 0xe3000.
31003500: system.datapaths: Mapping vaddr 0x6ecbc0 -> paddr 0xe3bc0.
31003500: system.datapaths: Inserting TLB entry vpn 0x6ec000 -> ppn 0xe3000.
31003500: system.datapaths: Mapping vaddr 0x6edbc0 -> paddr 0xe3bc0.
31003500: system.datapaths: Inserting TLB entry vpn 0x6ed000 -> ppn 0xe3000.
31003500: system.datapaths: Mapping vaddr 0x6eebc0 -> paddr 0xe3bc0.
31003500: system.datapaths: Inserting TLB entry vpn 0x6ee000 -> ppn 0xe3000.
31003500: system.datapaths: Mapping vaddr 0x6efbc0 -> paddr 0xe3bc0.
31003500: system.datapaths: Inserting TLB entry vpn 0x6ef000 -> ppn 0xe3000.
info: Received mapping for array sol at vaddr 0x6cfbe4 of length 131108.
31047000: system.datapaths: Inserting array label mapping sol -> vpn 0x6cfbe4.
31047000: system.datapaths: Mapping vaddr 0x6cfbe4 -> paddr 0xd3be4.
31047000: system.datapaths: Inserting TLB entry vpn 0x6cf000 -> ppn 0xd3000.
31047000: system.datapaths: Mapping vaddr 0x6d0be4 -> paddr 0xd4be4.
31047000: system.datapaths: Inserting TLB entry vpn 0x6d0000 -> ppn 0xd4000.
31047000: system.datapaths: Mapping vaddr 0x6d1be4 -> paddr 0xd5be4.
31047000: system.datapaths: Inserting TLB entry vpn 0x6d1000 -> ppn 0xd5000.
31047000: system.datapaths: Mapping vaddr 0x6d2be4 -> paddr 0xd6be4.
31047000: system.datapaths: Inserting TLB entry vpn 0x6d2000 -> ppn 0xd6000.
31047000: system.datapaths: Mapping vaddr 0x6d3be4 -> paddr 0xd7be4.
31047000: system.datapaths: Inserting TLB entry vpn 0x6d3000 -> ppn 0xd7000.
31047000: system.datapaths: Mapping vaddr 0x6d4be4 -> paddr 0xd8be4.
31047000: system.datapaths: Inserting TLB entry vpn 0x6d4000 -> ppn 0xd8000.
31047000: system.datapaths: Mapping vaddr 0x6d5be4 -> paddr 0xd9be4.
31047000: system.datapaths: Inserting TLB entry vpn 0x6d5000 -> ppn 0xd9000.
31047000: system.datapaths: Mapping vaddr 0x6d6be4 -> paddr 0xdabe4.
31047000: system.datapaths: Inserting TLB entry vpn 0x6d6000 -> ppn 0xda000.
31047000: system.datapaths: Mapping vaddr 0x6d7be4 -> paddr 0xdbbe4.
31047000: system.datapaths: Inserting TLB entry vpn 0x6d7000 -> ppn 0xdb000.
31047000: system.datapaths: Mapping vaddr 0x6d8be4 -> paddr 0xdcbe4.
31047000: system.datapaths: Inserting TLB entry vpn 0x6d8000 -> ppn 0xdc000.
31047000: system.datapaths: Mapping vaddr 0x6d9be4 -> paddr 0xddbe4.
31047000: system.datapaths: Inserting TLB entry vpn 0x6d9000 -> ppn 0xdd000.
31047000: system.datapaths: Mapping vaddr 0x6dabe4 -> paddr 0xdebe4.
31047000: system.datapaths: Inserting TLB entry vpn 0x6da000 -> ppn 0xde000.
31047000: system.datapaths: Mapping vaddr 0x6dbbe4 -> paddr 0xdfbe4.
31047000: system.datapaths: Inserting TLB entry vpn 0x6db000 -> ppn 0xdf000.
31047000: system.datapaths: Mapping vaddr 0x6dcbe4 -> paddr 0xe0be4.
31047000: system.datapaths: Inserting TLB entry vpn 0x6dc000 -> ppn 0xe0000.
31047000: system.datapaths: Mapping vaddr 0x6ddbe4 -> paddr 0xe1be4.
31047000: system.datapaths: Inserting TLB entry vpn 0x6dd000 -> ppn 0xe1000.
31047000: system.datapaths: Mapping vaddr 0x6debe4 -> paddr 0xe2be4.
31047000: system.datapaths: Inserting TLB entry vpn 0x6de000 -> ppn 0xe2000.
31047000: system.datapaths: Mapping vaddr 0x6dfbe4 -> paddr 0xe3be4.
31047000: system.datapaths: Inserting TLB entry vpn 0x6df000 -> ppn 0xe3000.
31047000: system.datapaths: Mapping vaddr 0x6e0be4 -> paddr 0xe3be4.
31047000: system.datapaths: Inserting TLB entry vpn 0x6e0000 -> ppn 0xe3000.
31047000: system.datapaths: Mapping vaddr 0x6e1be4 -> paddr 0xe3be4.
31047000: system.datapaths: Inserting TLB entry vpn 0x6e1000 -> ppn 0xe3000.
31047000: system.datapaths: Mapping vaddr 0x6e2be4 -> paddr 0xe3be4.
31047000: system.datapaths: Inserting TLB entry vpn 0x6e2000 -> ppn 0xe3000.
31047000: system.datapaths: Mapping vaddr 0x6e3be4 -> paddr 0xe3be4.
31047000: system.datapaths: Inserting TLB entry vpn 0x6e3000 -> ppn 0xe3000.
31047000: system.datapaths: Mapping vaddr 0x6e4be4 -> paddr 0xe3be4.
31047000: system.datapaths: Inserting TLB entry vpn 0x6e4000 -> ppn 0xe3000.
31047000: system.datapaths: Mapping vaddr 0x6e5be4 -> paddr 0xe3be4.
31047000: system.datapaths: Inserting TLB entry vpn 0x6e5000 -> ppn 0xe3000.
31047000: system.datapaths: Mapping vaddr 0x6e6be4 -> paddr 0xe3be4.
31047000: system.datapaths: Inserting TLB entry vpn 0x6e6000 -> ppn 0xe3000.
31047000: system.datapaths: Mapping vaddr 0x6e7be4 -> paddr 0xe3be4.
31047000: system.datapaths: Inserting TLB entry vpn 0x6e7000 -> ppn 0xe3000.
31047000: system.datapaths: Mapping vaddr 0x6e8be4 -> paddr 0xe3be4.
31047000: system.datapaths: Inserting TLB entry vpn 0x6e8000 -> ppn 0xe3000.
31047000: system.datapaths: Mapping vaddr 0x6e9be4 -> paddr 0xe3be4.
31047000: system.datapaths: Inserting TLB entry vpn 0x6e9000 -> ppn 0xe3000.
31047000: system.datapaths: Mapping vaddr 0x6eabe4 -> paddr 0xe3be4.
31047000: system.datapaths: Inserting TLB entry vpn 0x6ea000 -> ppn 0xe3000.
31047000: system.datapaths: Mapping vaddr 0x6ebbe4 -> paddr 0xe3be4.
31047000: system.datapaths: Inserting TLB entry vpn 0x6eb000 -> ppn 0xe3000.
31047000: system.datapaths: Mapping vaddr 0x6ecbe4 -> paddr 0xe3be4.
31047000: system.datapaths: Inserting TLB entry vpn 0x6ec000 -> ppn 0xe3000.
31047000: system.datapaths: Mapping vaddr 0x6edbe4 -> paddr 0xe3be4.
31047000: system.datapaths: Inserting TLB entry vpn 0x6ed000 -> ppn 0xe3000.
31047000: system.datapaths: Mapping vaddr 0x6eebe4 -> paddr 0xe3be4.
31047000: system.datapaths: Inserting TLB entry vpn 0x6ee000 -> ppn 0xe3000.
31047000: system.datapaths: Mapping vaddr 0x6efbe4 -> paddr 0xe3be4.
31047000: system.datapaths: Inserting TLB entry vpn 0x6ef000 -> ppn 0xe3000.
Zero-out Task 0
info: Received L1 cache registration for ACC-task Data at 6bfbc0 - 6cfbe4, size: 65572.
729778500: global: Work Begin workid: 0, threadid 0
Initialize Task 0
Write req 6bfbc0 fall in Acc-task data range 6bfbc0 - 6cfbe4, accumulated bytes: 4
Write req 6bfdc0 fall in Acc-task data range 6bfbc0 - 6cfbe4, accumulated bytes: 8
Write req 6bffc0 fall in Acc-task data range 6bfbc0 - 6cfbe4, accumulated bytes: 12
Write req 6c07c0 fall in Acc-task data range 6bfbc0 - 6cfbe4, accumulated bytes: 16
Write req 6c01c0 fall in Acc-task data range 6bfbc0 - 6cfbe4, accumulated bytes: 20
Write req 6c03c0 fall in Acc-task data range 6bfbc0 - 6cfbe4, accumulated bytes: 24
Write req 6c05c0 fall in Acc-task data range 6bfbc0 - 6cfbe4, accumulated bytes: 28
Write req 6c09c0 fall in Acc-task data range 6bfbc0 - 6cfbe4, accumulated bytes: 32
Write req 6c0bc0 fall in Acc-task data range 6bfbc0 - 6cfbe4, accumulated bytes: 36
Write req 6c0dc0 fall in Acc-task data range 6bfbc0 - 6cfbe4, accumulated bytes: 40
Write req 6c0fc0 fall in Acc-task data range 6bfbc0 - 6cfbe4, accumulated bytes: 44
Write req 6c11c0 fall in Acc-task data range 6bfbc0 - 6cfbe4, accumulated bytes: 48
Write req 6c13c0 fall in Acc-task data range 6bfbc0 - 6cfbe4, accumulated bytes: 52
Write req 6c2dc0 fall in Acc-task data range 6bfbc0 - 6cfbe4, accumulated bytes: 56
Write req 6c25c0 fall in Acc-task data range 6bfbc0 - 6cfbe4, accumulated bytes: 60
Write req 6c2bc0 fall in Acc-task data range 6bfbc0 - 6cfbe4, accumulated bytes: 64
Write req 6c27c0 fall in Acc-task data range 6bfbc0 - 6cfbe4, accumulated bytes: 68
Write req 6c31c0 fall in Acc-task data range 6bfbc0 - 6cfbe4, accumulated bytes: 72
Write req 6c29c0 fall in Acc-task data range 6bfbc0 - 6cfbe4, accumulated bytes: 76
Write req 6c15c0 fall in Acc-task data range 6bfbc0 - 6cfbe4, accumulated bytes: 80
Write req 6c17c0 fall in Acc-task data range 6bfbc0 - 6cfbe4, accumulated bytes: 84
Write req 6c19c0 fall in Acc-task data range 6bfbc0 - 6cfbe4, accumulated bytes: 88
Write req 6c1bc0 fall in Acc-task data range 6bfbc0 - 6cfbe4, accumulated bytes: 92
Write req 6c1dc0 fall in Acc-task data range 6bfbc0 - 6cfbe4, accumulated bytes: 96
Write req 6c1fc0 fall in Acc-task data range 6bfbc0 - 6cfbe4, accumulated bytes: 100
Write req 6c21c0 fall in Acc-task data range 6bfbc0 - 6cfbe4, accumulated bytes: 104
Write req 6c33c0 fall in Acc-task data range 6bfbc0 - 6cfbe4, accumulated bytes: 108
Write req 6c23c0 fall in Acc-task data range 6bfbc0 - 6cfbe4, accumulated bytes: 112
Write req 6c35c0 fall in Acc-task data range 6bfbc0 - 6cfbe4, accumulated bytes: 116
Write req 6c2fc0 fall in Acc-task data range 6bfbc0 - 6cfbe4, accumulated bytes: 120
Write req 6c37c0 fall in Acc-task data range 6bfbc0 - 6cfbe4, accumulated bytes: 124
Write req 6c39c0 fall in Acc-task data range 6bfbc0 - 6cfbe4, accumulated bytes: 128
Write req 6c3bc0 fall in Acc-task data range 6bfbc0 - 6cfbe4, accumulated bytes: 132
Write req 6c3dc0 fall in Acc-task data range 6bfbc0 - 6cfbe4, accumulated bytes: 136
Write req 6c3fc0 fall in Acc-task data range 6bfbc0 - 6cfbe4, accumulated bytes: 140
Write req 6c41c0 fall in Acc-task data range 6bfbc0 - 6cfbe4, accumulated bytes: 144
Write req 6c43c0 fall in Acc-task data range 6bfbc0 - 6cfbe4, accumulated bytes: 148
Write req 6c45c0 fall in Acc-task data range 6bfbc0 - 6cfbe4, accumulated bytes: 152
Write req 6c47c0 fall in Acc-task data range 6bfbc0 - 6cfbe4, accumulated bytes: 156
Write req 6c49c0 fall in Acc-task data range 6bfbc0 - 6cfbe4, accumulated bytes: 160
Write req 6c4bc0 fall in Acc-task data range 6bfbc0 - 6cfbe4, accumulated bytes: 164
Write req 6c4dc0 fall in Acc-task data range 6bfbc0 - 6cfbe4, accumulated bytes: 168
Write req 6c4fc0 fall in Acc-task data range 6bfbc0 - 6cfbe4, accumulated bytes: 172
Write req 6c51c0 fall in Acc-task data range 6bfbc0 - 6cfbe4, accumulated bytes: 176
Write req 6c53c0 fall in Acc-task data range 6bfbc0 - 6cfbe4, accumulated bytes: 180
Write req 6c55c0 fall in Acc-task data range 6bfbc0 - 6cfbe4, accumulated bytes: 184
Write req 6c57c0 fall in Acc-task data range 6bfbc0 - 6cfbe4, accumulated bytes: 188
Write req 6c59c0 fall in Acc-task data range 6bfbc0 - 6cfbe4, accumulated bytes: 192
Write req 6c5bc0 fall in Acc-task data range 6bfbc0 - 6cfbe4, accumulated bytes: 196
Write req 6c5dc0 fall in Acc-task data range 6bfbc0 - 6cfbe4, accumulated bytes: 200
Write req 6c5fc0 fall in Acc-task data range 6bfbc0 - 6cfbe4, accumulated bytes: 204
Write req 6c61c0 fall in Acc-task data range 6bfbc0 - 6cfbe4, accumulated bytes: 208
Write req 6c63c0 fall in Acc-task data range 6bfbc0 - 6cfbe4, accumulated bytes: 212
Write req 6c65c0 fall in Acc-task data range 6bfbc0 - 6cfbe4, accumulated bytes: 216
Write req 6c67c0 fall in Acc-task data range 6bfbc0 - 6cfbe4, accumulated bytes: 220
Write req 6c69c0 fall in Acc-task data range 6bfbc0 - 6cfbe4, accumulated bytes: 224
Write req 6c6bc0 fall in Acc-task data range 6bfbc0 - 6cfbe4, accumulated bytes: 228
Write req 6c6dc0 fall in Acc-task data range 6bfbc0 - 6cfbe4, accumulated bytes: 232
Write req 6c6fc0 fall in Acc-task data range 6bfbc0 - 6cfbe4, accumulated bytes: 236
Write req 6c71c0 fall in Acc-task data range 6bfbc0 - 6cfbe4, accumulated bytes: 240
Write req 6c73c0 fall in Acc-task data range 6bfbc0 - 6cfbe4, accumulated bytes: 244
Write req 6c75c0 fall in Acc-task data range 6bfbc0 - 6cfbe4, accumulated bytes: 248
Write req 6c77c0 fall in Acc-task data range 6bfbc0 - 6cfbe4, accumulated bytes: 252
Write req 6c79c0 fall in Acc-task data range 6bfbc0 - 6cfbe4, accumulated bytes: 256
Write req 6c7bc0 fall in Acc-task data range 6bfbc0 - 6cfbe4, accumulated bytes: 260
Write req 6c7dc0 fall in Acc-task data range 6bfbc0 - 6cfbe4, accumulated bytes: 264
Write req 6c7fc0 fall in Acc-task data range 6bfbc0 - 6cfbe4, accumulated bytes: 268
Write req 6c81c0 fall in Acc-task data range 6bfbc0 - 6cfbe4, accumulated bytes: 272
Write req 6c83c0 fall in Acc-task data range 6bfbc0 - 6cfbe4, accumulated bytes: 276
Write req 6c85c0 fall in Acc-task data range 6bfbc0 - 6cfbe4, accumulated bytes: 280
Write req 6c87c0 fall in Acc-task data range 6bfbc0 - 6cfbe4, accumulated bytes: 284
Write req 6c89c0 fall in Acc-task data range 6bfbc0 - 6cfbe4, accumulated bytes: 288
Write req 6c8bc0 fall in Acc-task data range 6bfbc0 - 6cfbe4, accumulated bytes: 292
Write req 6c8dc0 fall in Acc-task data range 6bfbc0 - 6cfbe4, accumulated bytes: 296
Write req 6c8fc0 fall in Acc-task data range 6bfbc0 - 6cfbe4, accumulated bytes: 300
Write req 6c91c0 fall in Acc-task data range 6bfbc0 - 6cfbe4, accumulated bytes: 304
Write req 6c93c0 fall in Acc-task data range 6bfbc0 - 6cfbe4, accumulated bytes: 308
Write req 6c95c0 fall in Acc-task data range 6bfbc0 - 6cfbe4, accumulated bytes: 312
Write req 6c97c0 fall in Acc-task data range 6bfbc0 - 6cfbe4, accumulated bytes: 316
Write req 6c99c0 fall in Acc-task data range 6bfbc0 - 6cfbe4, accumulated bytes: 320
Write req 6c9bc0 fall in Acc-task data range 6bfbc0 - 6cfbe4, accumulated bytes: 324
Write req 6c9dc0 fall in Acc-task data range 6bfbc0 - 6cfbe4, accumulated bytes: 328
Write req 6c9fc0 fall in Acc-task data range 6bfbc0 - 6cfbe4, accumulated bytes: 332
Write req 6ca1c0 fall in Acc-task data range 6bfbc0 - 6cfbe4, accumulated bytes: 336
Write req 6ca3c0 fall in Acc-task data range 6bfbc0 - 6cfbe4, accumulated bytes: 340
Write req 6ca5c0 fall in Acc-task data range 6bfbc0 - 6cfbe4, accumulated bytes: 344
Write req 6ca7c0 fall in Acc-task data range 6bfbc0 - 6cfbe4, accumulated bytes: 348
Write req 6ca9c0 fall in Acc-task data range 6bfbc0 - 6cfbe4, accumulated bytes: 352
Write req 6cabc0 fall in Acc-task data range 6bfbc0 - 6cfbe4, accumulated bytes: 356
Write req 6cadc0 fall in Acc-task data range 6bfbc0 - 6cfbe4, accumulated bytes: 360
Write req 6cafc0 fall in Acc-task data range 6bfbc0 - 6cfbe4, accumulated bytes: 364
Write req 6cb1c0 fall in Acc-task data range 6bfbc0 - 6cfbe4, accumulated bytes: 368
Write req 6cb3c0 fall in Acc-task data range 6bfbc0 - 6cfbe4, accumulated bytes: 372
Write req 6cb5c0 fall in Acc-task data range 6bfbc0 - 6cfbe4, accumulated bytes: 376
Write req 6cb7c0 fall in Acc-task data range 6bfbc0 - 6cfbe4, accumulated bytes: 380
Write req 6cb9c0 fall in Acc-task data range 6bfbc0 - 6cfbe4, accumulated bytes: 384
Write req 6cbbc0 fall in Acc-task data range 6bfbc0 - 6cfbe4, accumulated bytes: 388
Write req 6cbdc0 fall in Acc-task data range 6bfbc0 - 6cfbe4, accumulated bytes: 392
Write req 6cbfc0 fall in Acc-task data range 6bfbc0 - 6cfbe4, accumulated bytes: 396
Write req 6cc1c0 fall in Acc-task data range 6bfbc0 - 6cfbe4, accumulated bytes: 400
Write req 6cc3c0 fall in Acc-task data range 6bfbc0 - 6cfbe4, accumulated bytes: 404
Write req 6cc5c0 fall in Acc-task data range 6bfbc0 - 6cfbe4, accumulated bytes: 408
Write req 6cc7c0 fall in Acc-task data range 6bfbc0 - 6cfbe4, accumulated bytes: 412
Write req 6cc9c0 fall in Acc-task data range 6bfbc0 - 6cfbe4, accumulated bytes: 416
Write req 6ccbc0 fall in Acc-task data range 6bfbc0 - 6cfbe4, accumulated bytes: 420
Write req 6ccdc0 fall in Acc-task data range 6bfbc0 - 6cfbe4, accumulated bytes: 424
Write req 6ccfc0 fall in Acc-task data range 6bfbc0 - 6cfbe4, accumulated bytes: 428
Write req 6cd1c0 fall in Acc-task data range 6bfbc0 - 6cfbe4, accumulated bytes: 432
# of written bytes for Acc-task Data 6c01c0: 4
Evict req 6c01c0 fall in Acc-task data range 6bfbc0 - 6cfbe4(ctr disable), accum: 64
ACC Recv evict: 6c01c0
Write req 6cd3c0 fall in Acc-task data range 6bfbc0 - 6cfbe4, accumulated bytes: 436
Write req 6cd5c0 fall in Acc-task data range 6bfbc0 - 6cfbe4, accumulated bytes: 440
Write req 6cd7c0 fall in Acc-task data range 6bfbc0 - 6cfbe4, accumulated bytes: 444
Write req 6cd9c0 fall in Acc-task data range 6bfbc0 - 6cfbe4, accumulated bytes: 448
Write req 6cdbc0 fall in Acc-task data range 6bfbc0 - 6cfbe4, accumulated bytes: 452
Write req 6cddc0 fall in Acc-task data range 6bfbc0 - 6cfbe4, accumulated bytes: 456
Write req 6cdfc0 fall in Acc-task data range 6bfbc0 - 6cfbe4, accumulated bytes: 460
Write req 6ce1c0 fall in Acc-task data range 6bfbc0 - 6cfbe4, accumulated bytes: 464
Write req 6ce3c0 fall in Acc-task data range 6bfbc0 - 6cfbe4, accumulated bytes: 468
Write req 6ce5c0 fall in Acc-task data range 6bfbc0 - 6cfbe4, accumulated bytes: 472
Write req 6ce7c0 fall in Acc-task data range 6bfbc0 - 6cfbe4, accumulated bytes: 476
Write req 6ce9c0 fall in Acc-task data range 6bfbc0 - 6cfbe4, accumulated bytes: 480
Write req 6cebc0 fall in Acc-task data range 6bfbc0 - 6cfbe4, accumulated bytes: 484
Write req 6cedc0 fall in Acc-task data range 6bfbc0 - 6cfbe4, accumulated bytes: 488
Write req 6cefc0 fall in Acc-task data range 6bfbc0 - 6cfbe4, accumulated bytes: 492
Write req 6cf1c0 fall in Acc-task data range 6bfbc0 - 6cfbe4, accumulated bytes: 496
Write req 6cf3c0 fall in Acc-task data range 6bfbc0 - 6cfbe4, accumulated bytes: 500
Write req 6cf5c0 fall in Acc-task data range 6bfbc0 - 6cfbe4, accumulated bytes: 504
Write req 6cf7c0 fall in Acc-task data range 6bfbc0 - 6cfbe4, accumulated bytes: 508
Write req 6cf9c0 fall in Acc-task data range 6bfbc0 - 6cfbe4, accumulated bytes: 512
Write req 6bfbc4 fall in Acc-task data range 6bfbc0 - 6cfbe4, accumulated bytes: 516
Write req 6bfdc4 fall in Acc-task data range 6bfbc0 - 6cfbe4, accumulated bytes: 520
Write req 6bffc4 fall in Acc-task data range 6bfbc0 - 6cfbe4, accumulated bytes: 524
Write req 6c01c4 fall in Acc-task data range 6bfbc0 - 6cfbe4, accumulated bytes: 528
Write req 6c03c4 fall in Acc-task data range 6bfbc0 - 6cfbe4, accumulated bytes: 532
Write req 6c05c4 fall in Acc-task data range 6bfbc0 - 6cfbe4, accumulated bytes: 536
Write req 6c07c4 fall in Acc-task data range 6bfbc0 - 6cfbe4, accumulated bytes: 540
Write req 6c09c4 fall in Acc-task data range 6bfbc0 - 6cfbe4, accumulated bytes: 544
Write req 6c0bc4 fall in Acc-task data range 6bfbc0 - 6cfbe4, accumulated bytes: 548
Write req 6c0dc4 fall in Acc-task data range 6bfbc0 - 6cfbe4, accumulated bytes: 552
Write req 6c0fc4 fall in Acc-task data range 6bfbc0 - 6cfbe4, accumulated bytes: 556
Write req 6c11c4 fall in Acc-task data range 6bfbc0 - 6cfbe4, accumulated bytes: 560
Write req 6c13c4 fall in Acc-task data range 6bfbc0 - 6cfbe4, accumulated bytes: 564
Write req 6c15c4 fall in Acc-task data range 6bfbc0 - 6cfbe4, accumulated bytes: 568
Write req 6c17c4 fall in Acc-task data range 6bfbc0 - 6cfbe4, accumulated bytes: 572
Write req 6c19c4 fall in Acc-task data range 6bfbc0 - 6cfbe4, accumulated bytes: 576
Write req 6c1bc4 fall in Acc-task data range 6bfbc0 - 6cfbe4, accumulated bytes: 580
Write req 6c1dc4 fall in Acc-task data range 6bfbc0 - 6cfbe4, accumulated bytes: 584
Write req 6c1fc4 fall in Acc-task data range 6bfbc0 - 6cfbe4, accumulated bytes: 588
Write req 6c21c4 fall in Acc-task data range 6bfbc0 - 6cfbe4, accumulated bytes: 592
Write req 6c23c4 fall in Acc-task data range 6bfbc0 - 6cfbe4, accumulated bytes: 596
Write req 6c25c4 fall in Acc-task data range 6bfbc0 - 6cfbe4, accumulated bytes: 600
Write req 6c27c4 fall in Acc-task data range 6bfbc0 - 6cfbe4, accumulated bytes: 604
Write req 6c29c4 fall in Acc-task data range 6bfbc0 - 6cfbe4, accumulated bytes: 608
Write req 6c2bc4 fall in Acc-task data range 6bfbc0 - 6cfbe4, accumulated bytes: 612
Write req 6c2dc4 fall in Acc-task data range 6bfbc0 - 6cfbe4, accumulated bytes: 616
Write req 6c2fc4 fall in Acc-task data range 6bfbc0 - 6cfbe4, accumulated bytes: 620
Write req 6c31c4 fall in Acc-task data range 6bfbc0 - 6cfbe4, accumulated bytes: 624
Write req 6c33c4 fall in Acc-task data range 6bfbc0 - 6cfbe4, accumulated bytes: 628
Write req 6c35c4 fall in Acc-task data range 6bfbc0 - 6cfbe4, accumulated bytes: 632
Write req 6c37c4 fall in Acc-task data range 6bfbc0 - 6cfbe4, accumulated bytes: 636
Write req 6c39c4 fall in Acc-task data range 6bfbc0 - 6cfbe4, accumulated bytes: 640
Write req 6c3bc4 fall in Acc-task data range 6bfbc0 - 6cfbe4, accumulated bytes: 644
Write req 6c3dc4 fall in Acc-task data range 6bfbc0 - 6cfbe4, accumulated bytes: 648
Write req 6c3fc4 fall in Acc-task data range 6bfbc0 - 6cfbe4, accumulated bytes: 652
# of written bytes for Acc-task Data 6c81c0: 4
Evict req 6c81c0 fall in Acc-task data range 6bfbc0 - 6cfbe4(ctr disable), accum: 128
ACC Recv evict: 6c81c0
Write req 6c41c4 fall in Acc-task data range 6bfbc0 - 6cfbe4, accumulated bytes: 656
Write req 6c43c4 fall in Acc-task data range 6bfbc0 - 6cfbe4, accumulated bytes: 660
Write req 6c45c4 fall in Acc-task data range 6bfbc0 - 6cfbe4, accumulated bytes: 664
Write req 6c47c4 fall in Acc-task data range 6bfbc0 - 6cfbe4, accumulated bytes: 668
Write req 6c49c4 fall in Acc-task data range 6bfbc0 - 6cfbe4, accumulated bytes: 672
Write req 6c4bc4 fall in Acc-task data range 6bfbc0 - 6cfbe4, accumulated bytes: 676
Write req 6c4dc4 fall in Acc-task data range 6bfbc0 - 6cfbe4, accumulated bytes: 680
Write req 6c4fc4 fall in Acc-task data range 6bfbc0 - 6cfbe4, accumulated bytes: 684
Write req 6c51c4 fall in Acc-task data range 6bfbc0 - 6cfbe4, accumulated bytes: 688
Write req 6c53c4 fall in Acc-task data range 6bfbc0 - 6cfbe4, accumulated bytes: 692
Write req 6c55c4 fall in Acc-task data range 6bfbc0 - 6cfbe4, accumulated bytes: 696
Write req 6c57c4 fall in Acc-task data range 6bfbc0 - 6cfbe4, accumulated bytes: 700
Write req 6c59c4 fall in Acc-task data range 6bfbc0 - 6cfbe4, accumulated bytes: 704
Write req 6c5bc4 fall in Acc-task data range 6bfbc0 - 6cfbe4, accumulated bytes: 708
Write req 6c5dc4 fall in Acc-task data range 6bfbc0 - 6cfbe4, accumulated bytes: 712
Write req 6c5fc4 fall in Acc-task data range 6bfbc0 - 6cfbe4, accumulated bytes: 716
Write req 6c61c4 fall in Acc-task data range 6bfbc0 - 6cfbe4, accumulated bytes: 720
Write req 6c63c4 fall in Acc-task data range 6bfbc0 - 6cfbe4, accumulated bytes: 724
Write req 6c65c4 fall in Acc-task data range 6bfbc0 - 6cfbe4, accumulated bytes: 728
Write req 6c67c4 fall in Acc-task data range 6bfbc0 - 6cfbe4, accumulated bytes: 732
Write req 6c69c4 fall in Acc-task data range 6bfbc0 - 6cfbe4, accumulated bytes: 736
Write req 6c6bc4 fall in Acc-task data range 6bfbc0 - 6cfbe4, accumulated bytes: 740
Write req 6c6dc4 fall in Acc-task data range 6bfbc0 - 6cfbe4, accumulated bytes: 744
Write req 6c6fc4 fall in Acc-task data range 6bfbc0 - 6cfbe4, accumulated bytes: 748
Write req 6c71c4 fall in Acc-task data range 6bfbc0 - 6cfbe4, accumulated bytes: 752
Write req 6c73c4 fall in Acc-task data range 6bfbc0 - 6cfbe4, accumulated bytes: 756
Write req 6c85c4 fall in Acc-task data range 6bfbc0 - 6cfbe4, accumulated bytes: 760
Write req 6c75c4 fall in Acc-task data range 6bfbc0 - 6cfbe4, accumulated bytes: 764
Write req 6c89c4 fall in Acc-task data range 6bfbc0 - 6cfbe4, accumulated bytes: 768
Write req 6c8bc4 fall in Acc-task data range 6bfbc0 - 6cfbe4, accumulated bytes: 772
Write req 6c77c4 fall in Acc-task data range 6bfbc0 - 6cfbe4, accumulated bytes: 776
Write req 6c79c4 fall in Acc-task data range 6bfbc0 - 6cfbe4, accumulated bytes: 780
Write req 6c7bc4 fall in Acc-task data range 6bfbc0 - 6cfbe4, accumulated bytes: 784
Write req 6c7dc4 fall in Acc-task data range 6bfbc0 - 6cfbe4, accumulated bytes: 788
Write req 6c7fc4 fall in Acc-task data range 6bfbc0 - 6cfbe4, accumulated bytes: 792
Write req 6c81c4 fall in Acc-task data range 6bfbc0 - 6cfbe4, accumulated bytes: 796
Write req 6c83c4 fall in Acc-task data range 6bfbc0 - 6cfbe4, accumulated bytes: 800
Write req 6c87c4 fall in Acc-task data range 6bfbc0 - 6cfbe4, accumulated bytes: 804
Write req 6c8dc4 fall in Acc-task data range 6bfbc0 - 6cfbe4, accumulated bytes: 808
Write req 6c8fc4 fall in Acc-task data range 6bfbc0 - 6cfbe4, accumulated bytes: 812
Write req 6c91c4 fall in Acc-task data range 6bfbc0 - 6cfbe4, accumulated bytes: 816
Write req 6c93c4 fall in Acc-task data range 6bfbc0 - 6cfbe4, accumulated bytes: 820
Write req 6ca5c4 fall in Acc-task data range 6bfbc0 - 6cfbe4, accumulated bytes: 824
Write req 6c95c4 fall in Acc-task data range 6bfbc0 - 6cfbe4, accumulated bytes: 828
Write req 6c97c4 fall in Acc-task data range 6bfbc0 - 6cfbe4, accumulated bytes: 832
Write req 6cadc4 fall in Acc-task data range 6bfbc0 - 6cfbe4, accumulated bytes: 836
Write req 6c99c4 fall in Acc-task data range 6bfbc0 - 6cfbe4, accumulated bytes: 840
Write req 6c9bc4 fall in Acc-task data range 6bfbc0 - 6cfbe4, accumulated bytes: 844
Write req 6cb1c4 fall in Acc-task data range 6bfbc0 - 6cfbe4, accumulated bytes: 848
Write req 6c9dc4 fall in Acc-task data range 6bfbc0 - 6cfbe4, accumulated bytes: 852
Write req 6c9fc4 fall in Acc-task data range 6bfbc0 - 6cfbe4, accumulated bytes: 856
Write req 6ca1c4 fall in Acc-task data range 6bfbc0 - 6cfbe4, accumulated bytes: 860
Write req 6ca3c4 fall in Acc-task data range 6bfbc0 - 6cfbe4, accumulated bytes: 864
Write req 6ca7c4 fall in Acc-task data range 6bfbc0 - 6cfbe4, accumulated bytes: 868
Write req 6ca9c4 fall in Acc-task data range 6bfbc0 - 6cfbe4, accumulated bytes: 872
Write req 6cabc4 fall in Acc-task data range 6bfbc0 - 6cfbe4, accumulated bytes: 876
Write req 6cafc4 fall in Acc-task data range 6bfbc0 - 6cfbe4, accumulated bytes: 880
Write req 6cb3c4 fall in Acc-task data range 6bfbc0 - 6cfbe4, accumulated bytes: 884
Write req 6cb5c4 fall in Acc-task data range 6bfbc0 - 6cfbe4, accumulated bytes: 888
Write req 6cb7c4 fall in Acc-task data range 6bfbc0 - 6cfbe4, accumulated bytes: 892
Write req 6cb9c4 fall in Acc-task data range 6bfbc0 - 6cfbe4, accumulated bytes: 896
Write req 6cbbc4 fall in Acc-task data range 6bfbc0 - 6cfbe4, accumulated bytes: 900
Write req 6cbdc4 fall in Acc-task data range 6bfbc0 - 6cfbe4, accumulated bytes: 904
Write req 6cbfc4 fall in Acc-task data range 6bfbc0 - 6cfbe4, accumulated bytes: 908
Write req 6cc1c4 fall in Acc-task data range 6bfbc0 - 6cfbe4, accumulated bytes: 912
Write req 6cc3c4 fall in Acc-task data range 6bfbc0 - 6cfbe4, accumulated bytes: 916
Write req 6cc5c4 fall in Acc-task data range 6bfbc0 - 6cfbe4, accumulated bytes: 920
Write req 6cc7c4 fall in Acc-task data range 6bfbc0 - 6cfbe4, accumulated bytes: 924
Write req 6cc9c4 fall in Acc-task data range 6bfbc0 - 6cfbe4, accumulated bytes: 928
Write req 6ccbc4 fall in Acc-task data range 6bfbc0 - 6cfbe4, accumulated bytes: 932
Write req 6ccdc4 fall in Acc-task data range 6bfbc0 - 6cfbe4, accumulated bytes: 936
Write req 6ccfc4 fall in Acc-task data range 6bfbc0 - 6cfbe4, accumulated bytes: 940
Write req 6cd1c4 fall in Acc-task data range 6bfbc0 - 6cfbe4, accumulated bytes: 944
# of written bytes for Acc-task Data 6c05c0: 8
Evict req 6c05c0 fall in Acc-task data range 6bfbc0 - 6cfbe4(ctr disable), accum: 192
ACC Recv evict: 6c05c0
Write req 6cd3c4 fall in Acc-task data range 6bfbc0 - 6cfbe4, accumulated bytes: 948
Write req 6ce5c4 fall in Acc-task data range 6bfbc0 - 6cfbe4, accumulated bytes: 952
Write req 6cd5c4 fall in Acc-task data range 6bfbc0 - 6cfbe4, accumulated bytes: 956
Write req 6cd7c4 fall in Acc-task data range 6bfbc0 - 6cfbe4, accumulated bytes: 960
Write req 6cd9c4 fall in Acc-task data range 6bfbc0 - 6cfbe4, accumulated bytes: 964
Write req 6cebc4 fall in Acc-task data range 6bfbc0 - 6cfbe4, accumulated bytes: 968
Write req 6cdbc4 fall in Acc-task data range 6bfbc0 - 6cfbe4, accumulated bytes: 972
Write req 6cddc4 fall in Acc-task data range 6bfbc0 - 6cfbe4, accumulated bytes: 976
Write req 6ce7c4 fall in Acc-task data range 6bfbc0 - 6cfbe4, accumulated bytes: 980
Write req 6cdfc4 fall in Acc-task data range 6bfbc0 - 6cfbe4, accumulated bytes: 984
Write req 6ce1c4 fall in Acc-task data range 6bfbc0 - 6cfbe4, accumulated bytes: 988
Write req 6ce3c4 fall in Acc-task data range 6bfbc0 - 6cfbe4, accumulated bytes: 992
Write req 6ce9c4 fall in Acc-task data range 6bfbc0 - 6cfbe4, accumulated bytes: 996
Write req 6cedc4 fall in Acc-task data range 6bfbc0 - 6cfbe4, accumulated bytes: 1000
Write req 6cefc4 fall in Acc-task data range 6bfbc0 - 6cfbe4, accumulated bytes: 1004
Write req 6cf1c4 fall in Acc-task data range 6bfbc0 - 6cfbe4, accumulated bytes: 1008
Write req 6cf3c4 fall in Acc-task data range 6bfbc0 - 6cfbe4, accumulated bytes: 1012
Write req 6cf5c4 fall in Acc-task data range 6bfbc0 - 6cfbe4, accumulated bytes: 1016
Write req 6cf7c4 fall in Acc-task data range 6bfbc0 - 6cfbe4, accumulated bytes: 1020
Write req 6cf9c4 fall in Acc-task data range 6bfbc0 - 6cfbe4, accumulated bytes: 1024
Write req 6bfbc8 fall in Acc-task data range 6bfbc0 - 6cfbe4, accumulated bytes: 1028
Write req 6c0dc8 fall in Acc-task data range 6bfbc0 - 6cfbe4, accumulated bytes: 1032
Write req 6bfdc8 fall in Acc-task data range 6bfbc0 - 6cfbe4, accumulated bytes: 1036
Write req 6bffc8 fall in Acc-task data range 6bfbc0 - 6cfbe4, accumulated bytes: 1040
Write req 6c01c8 fall in Acc-task data range 6bfbc0 - 6cfbe4, accumulated bytes: 1044
Write req 6c03c8 fall in Acc-task data range 6bfbc0 - 6cfbe4, accumulated bytes: 1048
Write req 6c05c8 fall in Acc-task data range 6bfbc0 - 6cfbe4, accumulated bytes: 1052
Write req 6c07c8 fall in Acc-task data range 6bfbc0 - 6cfbe4, accumulated bytes: 1056
Write req 6c09c8 fall in Acc-task data range 6bfbc0 - 6cfbe4, accumulated bytes: 1060
Write req 6c13c8 fall in Acc-task data range 6bfbc0 - 6cfbe4, accumulated bytes: 1064
Write req 6c0bc8 fall in Acc-task data range 6bfbc0 - 6cfbe4, accumulated bytes: 1068
Write req 6c27c8 fall in Acc-task data range 6bfbc0 - 6cfbe4, accumulated bytes: 1072
Write req 6c0fc8 fall in Acc-task data range 6bfbc0 - 6cfbe4, accumulated bytes: 1076
Write req 6c21c8 fall in Acc-task data range 6bfbc0 - 6cfbe4, accumulated bytes: 1080
Write req 6c11c8 fall in Acc-task data range 6bfbc0 - 6cfbe4, accumulated bytes: 1084
Write req 6c23c8 fall in Acc-task data range 6bfbc0 - 6cfbe4, accumulated bytes: 1088
Write req 6c29c8 fall in Acc-task data range 6bfbc0 - 6cfbe4, accumulated bytes: 1092
Write req 6c2bc8 fall in Acc-task data range 6bfbc0 - 6cfbe4, accumulated bytes: 1096
Write req 6c15c8 fall in Acc-task data range 6bfbc0 - 6cfbe4, accumulated bytes: 1100
Write req 6c17c8 fall in Acc-task data range 6bfbc0 - 6cfbe4, accumulated bytes: 1104
Write req 6c19c8 fall in Acc-task data range 6bfbc0 - 6cfbe4, accumulated bytes: 1108
Write req 6c1bc8 fall in Acc-task data range 6bfbc0 - 6cfbe4, accumulated bytes: 1112
Write req 6c1dc8 fall in Acc-task data range 6bfbc0 - 6cfbe4, accumulated bytes: 1116
Write req 6c1fc8 fall in Acc-task data range 6bfbc0 - 6cfbe4, accumulated bytes: 1120
Write req 6c25c8 fall in Acc-task data range 6bfbc0 - 6cfbe4, accumulated bytes: 1124
Write req 6c2dc8 fall in Acc-task data range 6bfbc0 - 6cfbe4, accumulated bytes: 1128
Write req 6c2fc8 fall in Acc-task data range 6bfbc0 - 6cfbe4, accumulated bytes: 1132
Write req 6c31c8 fall in Acc-task data range 6bfbc0 - 6cfbe4, accumulated bytes: 1136
Write req 6c33c8 fall in Acc-task data range 6bfbc0 - 6cfbe4, accumulated bytes: 1140
Write req 6c35c8 fall in Acc-task data range 6bfbc0 - 6cfbe4, accumulated bytes: 1144
# of written bytes for Acc-task Data 6c85c0: 8
Evict req 6c85c0 fall in Acc-task data range 6bfbc0 - 6cfbe4(ctr disable), accum: 256
Write req 6c37c8 fall in Acc-task data range 6bfbc0 - 6cfbe4, accumulated bytes: 1148
Write req 6c39c8 fall in Acc-task data range 6bfbc0 - 6cfbe4, accumulated bytes: 1152
Write req 6c3bc8 fall in Acc-task data range 6bfbc0 - 6cfbe4, accumulated bytes: 1156
Write req 6c3dc8 fall in Acc-task data range 6bfbc0 - 6cfbe4, accumulated bytes: 1160
Write req 6c3fc8 fall in Acc-task data range 6bfbc0 - 6cfbe4, accumulated bytes: 1164
ACC Recv evict: 6c85c0
Write req 6c41c8 fall in Acc-task data range 6bfbc0 - 6cfbe4, accumulated bytes: 1168
Write req 6c43c8 fall in Acc-task data range 6bfbc0 - 6cfbe4, accumulated bytes: 1172
Write req 6c45c8 fall in Acc-task data range 6bfbc0 - 6cfbe4, accumulated bytes: 1176
Write req 6c47c8 fall in Acc-task data range 6bfbc0 - 6cfbe4, accumulated bytes: 1180
Write req 6c49c8 fall in Acc-task data range 6bfbc0 - 6cfbe4, accumulated bytes: 1184
Write req 6c4bc8 fall in Acc-task data range 6bfbc0 - 6cfbe4, accumulated bytes: 1188
Write req 6c4dc8 fall in Acc-task data range 6bfbc0 - 6cfbe4, accumulated bytes: 1192
Write req 6c4fc8 fall in Acc-task data range 6bfbc0 - 6cfbe4, accumulated bytes: 1196
Write req 6c51c8 fall in Acc-task data range 6bfbc0 - 6cfbe4, accumulated bytes: 1200
Write req 6c53c8 fall in Acc-task data range 6bfbc0 - 6cfbe4, accumulated bytes: 1204
Write req 6c55c8 fall in Acc-task data range 6bfbc0 - 6cfbe4, accumulated bytes: 1208
Write req 6c57c8 fall in Acc-task data range 6bfbc0 - 6cfbe4, accumulated bytes: 1212
Write req 6c59c8 fall in Acc-task data range 6bfbc0 - 6cfbe4, accumulated bytes: 1216
Write req 6c69c8 fall in Acc-task data range 6bfbc0 - 6cfbe4, accumulated bytes: 1220
Write req 6c5bc8 fall in Acc-task data range 6bfbc0 - 6cfbe4, accumulated bytes: 1224
Write req 6c5dc8 fall in Acc-task data range 6bfbc0 - 6cfbe4, accumulated bytes: 1228
Write req 6c5fc8 fall in Acc-task data range 6bfbc0 - 6cfbe4, accumulated bytes: 1232
Write req 6c61c8 fall in Acc-task data range 6bfbc0 - 6cfbe4, accumulated bytes: 1236
Write req 6c63c8 fall in Acc-task data range 6bfbc0 - 6cfbe4, accumulated bytes: 1240
Write req 6c65c8 fall in Acc-task data range 6bfbc0 - 6cfbe4, accumulated bytes: 1244
Write req 6c67c8 fall in Acc-task data range 6bfbc0 - 6cfbe4, accumulated bytes: 1248
Write req 6c6bc8 fall in Acc-task data range 6bfbc0 - 6cfbe4, accumulated bytes: 1252
Write req 6c6dc8 fall in Acc-task data range 6bfbc0 - 6cfbe4, accumulated bytes: 1256
Write req 6c6fc8 fall in Acc-task data range 6bfbc0 - 6cfbe4, accumulated bytes: 1260
Write req 6c71c8 fall in Acc-task data range 6bfbc0 - 6cfbe4, accumulated bytes: 1264
Write req 6c73c8 fall in Acc-task data range 6bfbc0 - 6cfbe4, accumulated bytes: 1268
Write req 6c75c8 fall in Acc-task data range 6bfbc0 - 6cfbe4, accumulated bytes: 1272
Write req 6c85c8 fall in Acc-task data range 6bfbc0 - 6cfbe4, accumulated bytes: 1276
Write req 6c77c8 fall in Acc-task data range 6bfbc0 - 6cfbe4, accumulated bytes: 1280
Write req 6c79c8 fall in Acc-task data range 6bfbc0 - 6cfbe4, accumulated bytes: 1284
Write req 6c8bc8 fall in Acc-task data range 6bfbc0 - 6cfbe4, accumulated bytes: 1288
Write req 6c7bc8 fall in Acc-task data range 6bfbc0 - 6cfbe4, accumulated bytes: 1292
Write req 6c7dc8 fall in Acc-task data range 6bfbc0 - 6cfbe4, accumulated bytes: 1296
Write req 6c91c8 fall in Acc-task data range 6bfbc0 - 6cfbe4, accumulated bytes: 1300
Write req 6c7fc8 fall in Acc-task data range 6bfbc0 - 6cfbe4, accumulated bytes: 1304
Write req 6c81c8 fall in Acc-task data range 6bfbc0 - 6cfbe4, accumulated bytes: 1308
Write req 6c83c8 fall in Acc-task data range 6bfbc0 - 6cfbe4, accumulated bytes: 1312
Write req 6c87c8 fall in Acc-task data range 6bfbc0 - 6cfbe4, accumulated bytes: 1316
Write req 6c89c8 fall in Acc-task data range 6bfbc0 - 6cfbe4, accumulated bytes: 1320
Write req 6c8dc8 fall in Acc-task data range 6bfbc0 - 6cfbe4, accumulated bytes: 1324
Write req 6c8fc8 fall in Acc-task data range 6bfbc0 - 6cfbe4, accumulated bytes: 1328
Write req 6c93c8 fall in Acc-task data range 6bfbc0 - 6cfbe4, accumulated bytes: 1332
Write req 6c95c8 fall in Acc-task data range 6bfbc0 - 6cfbe4, accumulated bytes: 1336
Write req 6c97c8 fall in Acc-task data range 6bfbc0 - 6cfbe4, accumulated bytes: 1340
Write req 6ca7c8 fall in Acc-task data range 6bfbc0 - 6cfbe4, accumulated bytes: 1344
Write req 6c99c8 fall in Acc-task data range 6bfbc0 - 6cfbe4, accumulated bytes: 1348
Write req 6c9bc8 fall in Acc-task data range 6bfbc0 - 6cfbe4, accumulated bytes: 1352
Write req 6c9dc8 fall in Acc-task data range 6bfbc0 - 6cfbe4, accumulated bytes: 1356
Write req 6c9fc8 fall in Acc-task data range 6bfbc0 - 6cfbe4, accumulated bytes: 1360
Write req 6ca1c8 fall in Acc-task data range 6bfbc0 - 6cfbe4, accumulated bytes: 1364
Write req 6ca3c8 fall in Acc-task data range 6bfbc0 - 6cfbe4, accumulated bytes: 1368
Write req 6ca5c8 fall in Acc-task data range 6bfbc0 - 6cfbe4, accumulated bytes: 1372
Write req 6ca9c8 fall in Acc-task data range 6bfbc0 - 6cfbe4, accumulated bytes: 1376
Write req 6cabc8 fall in Acc-task data range 6bfbc0 - 6cfbe4, accumulated bytes: 1380
Write req 6cadc8 fall in Acc-task data range 6bfbc0 - 6cfbe4, accumulated bytes: 1384
Write req 6cafc8 fall in Acc-task data range 6bfbc0 - 6cfbe4, accumulated bytes: 1388
Write req 6cb1c8 fall in Acc-task data range 6bfbc0 - 6cfbe4, accumulated bytes: 1392
Write req 6cb3c8 fall in Acc-task data range 6bfbc0 - 6cfbe4, accumulated bytes: 1396
Write req 6cb5c8 fall in Acc-task data range 6bfbc0 - 6cfbe4, accumulated bytes: 1400
Write req 6cb7c8 fall in Acc-task data range 6bfbc0 - 6cfbe4, accumulated bytes: 1404
Write req 6cb9c8 fall in Acc-task data range 6bfbc0 - 6cfbe4, accumulated bytes: 1408
Write req 6cbbc8 fall in Acc-task data range 6bfbc0 - 6cfbe4, accumulated bytes: 1412
Write req 6cbdc8 fall in Acc-task data range 6bfbc0 - 6cfbe4, accumulated bytes: 1416
Write req 6cbfc8 fall in Acc-task data range 6bfbc0 - 6cfbe4, accumulated bytes: 1420
Write req 6cc1c8 fall in Acc-task data range 6bfbc0 - 6cfbe4, accumulated bytes: 1424
Write req 6cc3c8 fall in Acc-task data range 6bfbc0 - 6cfbe4, accumulated bytes: 1428
Write req 6cc5c8 fall in Acc-task data range 6bfbc0 - 6cfbe4, accumulated bytes: 1432
Write req 6cc7c8 fall in Acc-task data range 6bfbc0 - 6cfbe4, accumulated bytes: 1436
Write req 6cc9c8 fall in Acc-task data range 6bfbc0 - 6cfbe4, accumulated bytes: 1440
Write req 6ccbc8 fall in Acc-task data range 6bfbc0 - 6cfbe4, accumulated bytes: 1444
Write req 6ccdc8 fall in Acc-task data range 6bfbc0 - 6cfbe4, accumulated bytes: 1448
Write req 6ccfc8 fall in Acc-task data range 6bfbc0 - 6cfbe4, accumulated bytes: 1452
Write req 6cd1c8 fall in Acc-task data range 6bfbc0 - 6cfbe4, accumulated bytes: 1456
# of written bytes for Acc-task Data 6c09c0: 12
Evict req 6c09c0 fall in Acc-task data range 6bfbc0 - 6cfbe4(ctr disable), accum: 320
ACC Recv evict: 6c09c0
Write req 6cd3c8 fall in Acc-task data range 6bfbc0 - 6cfbe4, accumulated bytes: 1460
Write req 6ce5c8 fall in Acc-task data range 6bfbc0 - 6cfbe4, accumulated bytes: 1464
Write req 6cd5c8 fall in Acc-task data range 6bfbc0 - 6cfbe4, accumulated bytes: 1468
Write req 6cd7c8 fall in Acc-task data range 6bfbc0 - 6cfbe4, accumulated bytes: 1472
Write req 6cd9c8 fall in Acc-task data range 6bfbc0 - 6cfbe4, accumulated bytes: 1476
Write req 6cebc8 fall in Acc-task data range 6bfbc0 - 6cfbe4, accumulated bytes: 1480
Write req 6cdbc8 fall in Acc-task data range 6bfbc0 - 6cfbe4, accumulated bytes: 1484
Write req 6cddc8 fall in Acc-task data range 6bfbc0 - 6cfbe4, accumulated bytes: 1488
Write req 6cf1c8 fall in Acc-task data range 6bfbc0 - 6cfbe4, accumulated bytes: 1492
Write req 6cdfc8 fall in Acc-task data range 6bfbc0 - 6cfbe4, accumulated bytes: 1496
Write req 6ce1c8 fall in Acc-task data range 6bfbc0 - 6cfbe4, accumulated bytes: 1500
Write req 6ce3c8 fall in Acc-task data range 6bfbc0 - 6cfbe4, accumulated bytes: 1504
Write req 6ce7c8 fall in Acc-task data range 6bfbc0 - 6cfbe4, accumulated bytes: 1508
Write req 6ce9c8 fall in Acc-task data range 6bfbc0 - 6cfbe4, accumulated bytes: 1512
Write req 6cedc8 fall in Acc-task data range 6bfbc0 - 6cfbe4, accumulated bytes: 1516
Write req 6cefc8 fall in Acc-task data range 6bfbc0 - 6cfbe4, accumulated bytes: 1520
Write req 6cf3c8 fall in Acc-task data range 6bfbc0 - 6cfbe4, accumulated bytes: 1524
Write req 6cf5c8 fall in Acc-task data range 6bfbc0 - 6cfbe4, accumulated bytes: 1528
Write req 6cf7c8 fall in Acc-task data range 6bfbc0 - 6cfbe4, accumulated bytes: 1532
Write req 6cf9c8 fall in Acc-task data range 6bfbc0 - 6cfbe4, accumulated bytes: 1536
Write req 6bfbcc fall in Acc-task data range 6bfbc0 - 6cfbe4, accumulated bytes: 1540
Write req 6bfdcc fall in Acc-task data range 6bfbc0 - 6cfbe4, accumulated bytes: 1544
Write req 6c0dcc fall in Acc-task data range 6bfbc0 - 6cfbe4, accumulated bytes: 1548
Write req 6bffcc fall in Acc-task data range 6bfbc0 - 6cfbe4, accumulated bytes: 1552
Write req 6c01cc fall in Acc-task data range 6bfbc0 - 6cfbe4, accumulated bytes: 1556
Write req 6c03cc fall in Acc-task data range 6bfbc0 - 6cfbe4, accumulated bytes: 1560
Write req 6c05cc fall in Acc-task data range 6bfbc0 - 6cfbe4, accumulated bytes: 1564
Write req 6c07cc fall in Acc-task data range 6bfbc0 - 6cfbe4, accumulated bytes: 1568
Write req 6c09cc fall in Acc-task data range 6bfbc0 - 6cfbe4, accumulated bytes: 1572
Write req 6c0bcc fall in Acc-task data range 6bfbc0 - 6cfbe4, accumulated bytes: 1576
Write req 6c0fcc fall in Acc-task data range 6bfbc0 - 6cfbe4, accumulated bytes: 1580
Write req 6c11cc fall in Acc-task data range 6bfbc0 - 6cfbe4, accumulated bytes: 1584
Write req 6c13cc fall in Acc-task data range 6bfbc0 - 6cfbe4, accumulated bytes: 1588
Write req 6c15cc fall in Acc-task data range 6bfbc0 - 6cfbe4, accumulated bytes: 1592
Write req 6c25cc fall in Acc-task data range 6bfbc0 - 6cfbe4, accumulated bytes: 1596
Write req 6c17cc fall in Acc-task data range 6bfbc0 - 6cfbe4, accumulated bytes: 1600
Write req 6c19cc fall in Acc-task data range 6bfbc0 - 6cfbe4, accumulated bytes: 1604
Write req 6c2bcc fall in Acc-task data range 6bfbc0 - 6cfbe4, accumulated bytes: 1608
Write req 6c1bcc fall in Acc-task data range 6bfbc0 - 6cfbe4, accumulated bytes: 1612
Write req 6c1dcc fall in Acc-task data range 6bfbc0 - 6cfbe4, accumulated bytes: 1616
Write req 6c31cc fall in Acc-task data range 6bfbc0 - 6cfbe4, accumulated bytes: 1620
Write req 6c1fcc fall in Acc-task data range 6bfbc0 - 6cfbe4, accumulated bytes: 1624
Write req 6c21cc fall in Acc-task data range 6bfbc0 - 6cfbe4, accumulated bytes: 1628
Write req 6c23cc fall in Acc-task data range 6bfbc0 - 6cfbe4, accumulated bytes: 1632
Write req 6c27cc fall in Acc-task data range 6bfbc0 - 6cfbe4, accumulated bytes: 1636
Write req 6c29cc fall in Acc-task data range 6bfbc0 - 6cfbe4, accumulated bytes: 1640
Write req 6c2dcc fall in Acc-task data range 6bfbc0 - 6cfbe4, accumulated bytes: 1644
Write req 6c2fcc fall in Acc-task data range 6bfbc0 - 6cfbe4, accumulated bytes: 1648
Write req 6c33cc fall in Acc-task data range 6bfbc0 - 6cfbe4, accumulated bytes: 1652
Write req 6c35cc fall in Acc-task data range 6bfbc0 - 6cfbe4, accumulated bytes: 1656
Write req 6c37cc fall in Acc-task data range 6bfbc0 - 6cfbe4, accumulated bytes: 1660
Write req 6c39cc fall in Acc-task data range 6bfbc0 - 6cfbe4, accumulated bytes: 1664
Write req 6c3bcc fall in Acc-task data range 6bfbc0 - 6cfbe4, accumulated bytes: 1668
# of written bytes for Acc-task Data 6c89c0: 12
Evict req 6c89c0 fall in Acc-task data range 6bfbc0 - 6cfbe4(ctr disable), accum: 384
Write req 6c3dcc fall in Acc-task data range 6bfbc0 - 6cfbe4, accumulated bytes: 1672
Write req 6c3fcc fall in Acc-task data range 6bfbc0 - 6cfbe4, accumulated bytes: 1676
Write req 6c41cc fall in Acc-task data range 6bfbc0 - 6cfbe4, accumulated bytes: 1680
Write req 6c43cc fall in Acc-task data range 6bfbc0 - 6cfbe4, accumulated bytes: 1684
Write req 6c45cc fall in Acc-task data range 6bfbc0 - 6cfbe4, accumulated bytes: 1688
ACC Recv evict: 6c89c0
Write req 6c47cc fall in Acc-task data range 6bfbc0 - 6cfbe4, accumulated bytes: 1692
Write req 6c49cc fall in Acc-task data range 6bfbc0 - 6cfbe4, accumulated bytes: 1696
Write req 6c4bcc fall in Acc-task data range 6bfbc0 - 6cfbe4, accumulated bytes: 1700
Write req 6c4dcc fall in Acc-task data range 6bfbc0 - 6cfbe4, accumulated bytes: 1704
Write req 6c4fcc fall in Acc-task data range 6bfbc0 - 6cfbe4, accumulated bytes: 1708
Write req 6c51cc fall in Acc-task data range 6bfbc0 - 6cfbe4, accumulated bytes: 1712
Write req 6c53cc fall in Acc-task data range 6bfbc0 - 6cfbe4, accumulated bytes: 1716
Write req 6c65cc fall in Acc-task data range 6bfbc0 - 6cfbe4, accumulated bytes: 1720
Write req 6c55cc fall in Acc-task data range 6bfbc0 - 6cfbe4, accumulated bytes: 1724
Write req 6c57cc fall in Acc-task data range 6bfbc0 - 6cfbe4, accumulated bytes: 1728
Write req 6c59cc fall in Acc-task data range 6bfbc0 - 6cfbe4, accumulated bytes: 1732
Write req 6c6bcc fall in Acc-task data range 6bfbc0 - 6cfbe4, accumulated bytes: 1736
Write req 6c5bcc fall in Acc-task data range 6bfbc0 - 6cfbe4, accumulated bytes: 1740
Write req 6c5dcc fall in Acc-task data range 6bfbc0 - 6cfbe4, accumulated bytes: 1744
Write req 6c67cc fall in Acc-task data range 6bfbc0 - 6cfbe4, accumulated bytes: 1748
Write req 6c5fcc fall in Acc-task data range 6bfbc0 - 6cfbe4, accumulated bytes: 1752
Write req 6c61cc fall in Acc-task data range 6bfbc0 - 6cfbe4, accumulated bytes: 1756
Write req 6c63cc fall in Acc-task data range 6bfbc0 - 6cfbe4, accumulated bytes: 1760
Write req 6c69cc fall in Acc-task data range 6bfbc0 - 6cfbe4, accumulated bytes: 1764
Write req 6c6dcc fall in Acc-task data range 6bfbc0 - 6cfbe4, accumulated bytes: 1768
Write req 6c6fcc fall in Acc-task data range 6bfbc0 - 6cfbe4, accumulated bytes: 1772
Write req 6c71cc fall in Acc-task data range 6bfbc0 - 6cfbe4, accumulated bytes: 1776
Write req 6c73cc fall in Acc-task data range 6bfbc0 - 6cfbe4, accumulated bytes: 1780
Write req 6c75cc fall in Acc-task data range 6bfbc0 - 6cfbe4, accumulated bytes: 1784
Write req 6c8bcc fall in Acc-task data range 6bfbc0 - 6cfbe4, accumulated bytes: 1788
Write req 6c77cc fall in Acc-task data range 6bfbc0 - 6cfbe4, accumulated bytes: 1792
Write req 6c79cc fall in Acc-task data range 6bfbc0 - 6cfbe4, accumulated bytes: 1796
Write req 6c7bcc fall in Acc-task data range 6bfbc0 - 6cfbe4, accumulated bytes: 1800
Write req 6c8dcc fall in Acc-task data range 6bfbc0 - 6cfbe4, accumulated bytes: 1804
Write req 6c7dcc fall in Acc-task data range 6bfbc0 - 6cfbe4, accumulated bytes: 1808
Write req 6c7fcc fall in Acc-task data range 6bfbc0 - 6cfbe4, accumulated bytes: 1812
Write req 6c81cc fall in Acc-task data range 6bfbc0 - 6cfbe4, accumulated bytes: 1816
Write req 6c83cc fall in Acc-task data range 6bfbc0 - 6cfbe4, accumulated bytes: 1820
Write req 6c85cc fall in Acc-task data range 6bfbc0 - 6cfbe4, accumulated bytes: 1824
Write req 6c87cc fall in Acc-task data range 6bfbc0 - 6cfbe4, accumulated bytes: 1828
Write req 6c89cc fall in Acc-task data range 6bfbc0 - 6cfbe4, accumulated bytes: 1832
Write req 6c8fcc fall in Acc-task data range 6bfbc0 - 6cfbe4, accumulated bytes: 1836
Write req 6c91cc fall in Acc-task data range 6bfbc0 - 6cfbe4, accumulated bytes: 1840
Write req 6c93cc fall in Acc-task data range 6bfbc0 - 6cfbe4, accumulated bytes: 1844
Write req 6c9dcc fall in Acc-task data range 6bfbc0 - 6cfbe4, accumulated bytes: 1848
Write req 6c95cc fall in Acc-task data range 6bfbc0 - 6cfbe4, accumulated bytes: 1852
Write req 6c97cc fall in Acc-task data range 6bfbc0 - 6cfbe4, accumulated bytes: 1856
Write req 6ca9cc fall in Acc-task data range 6bfbc0 - 6cfbe4, accumulated bytes: 1860
Write req 6c99cc fall in Acc-task data range 6bfbc0 - 6cfbe4, accumulated bytes: 1864
Write req 6c9bcc fall in Acc-task data range 6bfbc0 - 6cfbe4, accumulated bytes: 1868
Write req 6cafcc fall in Acc-task data range 6bfbc0 - 6cfbe4, accumulated bytes: 1872
Write req 6c9fcc fall in Acc-task data range 6bfbc0 - 6cfbe4, accumulated bytes: 1876
Write req 6ca1cc fall in Acc-task data range 6bfbc0 - 6cfbe4, accumulated bytes: 1880
Write req 6ca3cc fall in Acc-task data range 6bfbc0 - 6cfbe4, accumulated bytes: 1884
Write req 6ca5cc fall in Acc-task data range 6bfbc0 - 6cfbe4, accumulated bytes: 1888
Write req 6ca7cc fall in Acc-task data range 6bfbc0 - 6cfbe4, accumulated bytes: 1892
Write req 6cabcc fall in Acc-task data range 6bfbc0 - 6cfbe4, accumulated bytes: 1896
Write req 6cadcc fall in Acc-task data range 6bfbc0 - 6cfbe4, accumulated bytes: 1900
Write req 6cb1cc fall in Acc-task data range 6bfbc0 - 6cfbe4, accumulated bytes: 1904
Write req 6cb3cc fall in Acc-task data range 6bfbc0 - 6cfbe4, accumulated bytes: 1908
Write req 6cb5cc fall in Acc-task data range 6bfbc0 - 6cfbe4, accumulated bytes: 1912
Write req 6cb7cc fall in Acc-task data range 6bfbc0 - 6cfbe4, accumulated bytes: 1916
Write req 6cb9cc fall in Acc-task data range 6bfbc0 - 6cfbe4, accumulated bytes: 1920
Write req 6cbbcc fall in Acc-task data range 6bfbc0 - 6cfbe4, accumulated bytes: 1924
Write req 6cbdcc fall in Acc-task data range 6bfbc0 - 6cfbe4, accumulated bytes: 1928
Write req 6cbfcc fall in Acc-task data range 6bfbc0 - 6cfbe4, accumulated bytes: 1932
Write req 6cc1cc fall in Acc-task data range 6bfbc0 - 6cfbe4, accumulated bytes: 1936
Write req 6cc3cc fall in Acc-task data range 6bfbc0 - 6cfbe4, accumulated bytes: 1940
Write req 6cc5cc fall in Acc-task data range 6bfbc0 - 6cfbe4, accumulated bytes: 1944
Write req 6cc7cc fall in Acc-task data range 6bfbc0 - 6cfbe4, accumulated bytes: 1948
Write req 6cc9cc fall in Acc-task data range 6bfbc0 - 6cfbe4, accumulated bytes: 1952
Write req 6ccbcc fall in Acc-task data range 6bfbc0 - 6cfbe4, accumulated bytes: 1956
Write req 6ccdcc fall in Acc-task data range 6bfbc0 - 6cfbe4, accumulated bytes: 1960
Write req 6ccfcc fall in Acc-task data range 6bfbc0 - 6cfbe4, accumulated bytes: 1964
Write req 6cd1cc fall in Acc-task data range 6bfbc0 - 6cfbe4, accumulated bytes: 1968
# of written bytes for Acc-task Data 6c0dc0: 16
Evict req 6c0dc0 fall in Acc-task data range 6bfbc0 - 6cfbe4(ctr disable), accum: 448
ACC Recv evict: 6c0dc0
Write req 6cd3cc fall in Acc-task data range 6bfbc0 - 6cfbe4, accumulated bytes: 1972
Write req 6ce5cc fall in Acc-task data range 6bfbc0 - 6cfbe4, accumulated bytes: 1976
Write req 6cd5cc fall in Acc-task data range 6bfbc0 - 6cfbe4, accumulated bytes: 1980
Write req 6cd7cc fall in Acc-task data range 6bfbc0 - 6cfbe4, accumulated bytes: 1984
Write req 6cd9cc fall in Acc-task data range 6bfbc0 - 6cfbe4, accumulated bytes: 1988
Write req 6cebcc fall in Acc-task data range 6bfbc0 - 6cfbe4, accumulated bytes: 1992
Write req 6cdbcc fall in Acc-task data range 6bfbc0 - 6cfbe4, accumulated bytes: 1996
Write req 6cddcc fall in Acc-task data range 6bfbc0 - 6cfbe4, accumulated bytes: 2000
Write req 6ce7cc fall in Acc-task data range 6bfbc0 - 6cfbe4, accumulated bytes: 2004
Write req 6cdfcc fall in Acc-task data range 6bfbc0 - 6cfbe4, accumulated bytes: 2008
Write req 6ce1cc fall in Acc-task data range 6bfbc0 - 6cfbe4, accumulated bytes: 2012
Write req 6ce3cc fall in Acc-task data range 6bfbc0 - 6cfbe4, accumulated bytes: 2016
Write req 6ce9cc fall in Acc-task data range 6bfbc0 - 6cfbe4, accumulated bytes: 2020
Write req 6cedcc fall in Acc-task data range 6bfbc0 - 6cfbe4, accumulated bytes: 2024
Write req 6cefcc fall in Acc-task data range 6bfbc0 - 6cfbe4, accumulated bytes: 2028
Write req 6cf1cc fall in Acc-task data range 6bfbc0 - 6cfbe4, accumulated bytes: 2032
Write req 6cf3cc fall in Acc-task data range 6bfbc0 - 6cfbe4, accumulated bytes: 2036
Write req 6cf5cc fall in Acc-task data range 6bfbc0 - 6cfbe4, accumulated bytes: 2040
Write req 6cf7cc fall in Acc-task data range 6bfbc0 - 6cfbe4, accumulated bytes: 2044
Write req 6cf9cc fall in Acc-task data range 6bfbc0 - 6cfbe4, accumulated bytes: 2048
Write req 6bfbd0 fall in Acc-task data range 6bfbc0 - 6cfbe4, accumulated bytes: 2052
Write req 6c0dd0 fall in Acc-task data range 6bfbc0 - 6cfbe4, accumulated bytes: 2056
Write req 6bfdd0 fall in Acc-task data range 6bfbc0 - 6cfbe4, accumulated bytes: 2060
Write req 6bffd0 fall in Acc-task data range 6bfbc0 - 6cfbe4, accumulated bytes: 2064
Write req 6c01d0 fall in Acc-task data range 6bfbc0 - 6cfbe4, accumulated bytes: 2068
Write req 6c03d0 fall in Acc-task data range 6bfbc0 - 6cfbe4, accumulated bytes: 2072
Write req 6c05d0 fall in Acc-task data range 6bfbc0 - 6cfbe4, accumulated bytes: 2076
Write req 6c07d0 fall in Acc-task data range 6bfbc0 - 6cfbe4, accumulated bytes: 2080
Write req 6c09d0 fall in Acc-task data range 6bfbc0 - 6cfbe4, accumulated bytes: 2084
Write req 6c13d0 fall in Acc-task data range 6bfbc0 - 6cfbe4, accumulated bytes: 2088
Write req 6c0bd0 fall in Acc-task data range 6bfbc0 - 6cfbe4, accumulated bytes: 2092
Write req 6c27d0 fall in Acc-task data range 6bfbc0 - 6cfbe4, accumulated bytes: 2096
Write req 6c0fd0 fall in Acc-task data range 6bfbc0 - 6cfbe4, accumulated bytes: 2100
Write req 6c21d0 fall in Acc-task data range 6bfbc0 - 6cfbe4, accumulated bytes: 2104
Write req 6c11d0 fall in Acc-task data range 6bfbc0 - 6cfbe4, accumulated bytes: 2108
Write req 6c23d0 fall in Acc-task data range 6bfbc0 - 6cfbe4, accumulated bytes: 2112
Write req 6c29d0 fall in Acc-task data range 6bfbc0 - 6cfbe4, accumulated bytes: 2116
Write req 6c2bd0 fall in Acc-task data range 6bfbc0 - 6cfbe4, accumulated bytes: 2120
Write req 6c15d0 fall in Acc-task data range 6bfbc0 - 6cfbe4, accumulated bytes: 2124
Write req 6c17d0 fall in Acc-task data range 6bfbc0 - 6cfbe4, accumulated bytes: 2128
Write req 6c19d0 fall in Acc-task data range 6bfbc0 - 6cfbe4, accumulated bytes: 2132
Write req 6c1bd0 fall in Acc-task data range 6bfbc0 - 6cfbe4, accumulated bytes: 2136
Write req 6c1dd0 fall in Acc-task data range 6bfbc0 - 6cfbe4, accumulated bytes: 2140
Write req 6c1fd0 fall in Acc-task data range 6bfbc0 - 6cfbe4, accumulated bytes: 2144
Write req 6c25d0 fall in Acc-task data range 6bfbc0 - 6cfbe4, accumulated bytes: 2148
Write req 6c2dd0 fall in Acc-task data range 6bfbc0 - 6cfbe4, accumulated bytes: 2152
Write req 6c2fd0 fall in Acc-task data range 6bfbc0 - 6cfbe4, accumulated bytes: 2156
Write req 6c31d0 fall in Acc-task data range 6bfbc0 - 6cfbe4, accumulated bytes: 2160
Write req 6c33d0 fall in Acc-task data range 6bfbc0 - 6cfbe4, accumulated bytes: 2164
Write req 6c35d0 fall in Acc-task data range 6bfbc0 - 6cfbe4, accumulated bytes: 2168
Write req 6c4bd0 fall in Acc-task data range 6bfbc0 - 6cfbe4, accumulated bytes: 2172
Write req 6c47d0 fall in Acc-task data range 6bfbc0 - 6cfbe4, accumulated bytes: 2176
Write req 6c37d0 fall in Acc-task data range 6bfbc0 - 6cfbe4, accumulated bytes: 2180
Write req 6c39d0 fall in Acc-task data range 6bfbc0 - 6cfbe4, accumulated bytes: 2184
Write req 6c3bd0 fall in Acc-task data range 6bfbc0 - 6cfbe4, accumulated bytes: 2188
# of written bytes for Acc-task Data 6c8dc0: 16
Evict req 6c8dc0 fall in Acc-task data range 6bfbc0 - 6cfbe4(ctr disable), accum: 512
Write req 6c3dd0 fall in Acc-task data range 6bfbc0 - 6cfbe4, accumulated bytes: 2192
Write req 6c3fd0 fall in Acc-task data range 6bfbc0 - 6cfbe4, accumulated bytes: 2196
Write req 6c41d0 fall in Acc-task data range 6bfbc0 - 6cfbe4, accumulated bytes: 2200
Write req 6c43d0 fall in Acc-task data range 6bfbc0 - 6cfbe4, accumulated bytes: 2204
Write req 6c45d0 fall in Acc-task data range 6bfbc0 - 6cfbe4, accumulated bytes: 2208
Write req 6c49d0 fall in Acc-task data range 6bfbc0 - 6cfbe4, accumulated bytes: 2212
ACC Recv evict: 6c8dc0
Write req 6c4dd0 fall in Acc-task data range 6bfbc0 - 6cfbe4, accumulated bytes: 2216
Write req 6c4fd0 fall in Acc-task data range 6bfbc0 - 6cfbe4, accumulated bytes: 2220
Write req 6c51d0 fall in Acc-task data range 6bfbc0 - 6cfbe4, accumulated bytes: 2224
Write req 6c53d0 fall in Acc-task data range 6bfbc0 - 6cfbe4, accumulated bytes: 2228
Write req 6c55d0 fall in Acc-task data range 6bfbc0 - 6cfbe4, accumulated bytes: 2232
Write req 6c69d0 fall in Acc-task data range 6bfbc0 - 6cfbe4, accumulated bytes: 2236
Write req 6c57d0 fall in Acc-task data range 6bfbc0 - 6cfbe4, accumulated bytes: 2240
Write req 6c59d0 fall in Acc-task data range 6bfbc0 - 6cfbe4, accumulated bytes: 2244
Write req 6c5bd0 fall in Acc-task data range 6bfbc0 - 6cfbe4, accumulated bytes: 2248
Write req 6c6dd0 fall in Acc-task data range 6bfbc0 - 6cfbe4, accumulated bytes: 2252
Write req 6c5dd0 fall in Acc-task data range 6bfbc0 - 6cfbe4, accumulated bytes: 2256
Write req 6c5fd0 fall in Acc-task data range 6bfbc0 - 6cfbe4, accumulated bytes: 2260
Write req 6c61d0 fall in Acc-task data range 6bfbc0 - 6cfbe4, accumulated bytes: 2264
Write req 6c63d0 fall in Acc-task data range 6bfbc0 - 6cfbe4, accumulated bytes: 2268
Write req 6c65d0 fall in Acc-task data range 6bfbc0 - 6cfbe4, accumulated bytes: 2272
Write req 6c67d0 fall in Acc-task data range 6bfbc0 - 6cfbe4, accumulated bytes: 2276
Write req 6c6bd0 fall in Acc-task data range 6bfbc0 - 6cfbe4, accumulated bytes: 2280
Write req 6c6fd0 fall in Acc-task data range 6bfbc0 - 6cfbe4, accumulated bytes: 2284
Write req 6c71d0 fall in Acc-task data range 6bfbc0 - 6cfbe4, accumulated bytes: 2288
Write req 6c73d0 fall in Acc-task data range 6bfbc0 - 6cfbe4, accumulated bytes: 2292
Write req 6c75d0 fall in Acc-task data range 6bfbc0 - 6cfbe4, accumulated bytes: 2296
Write req 6c8bd0 fall in Acc-task data range 6bfbc0 - 6cfbe4, accumulated bytes: 2300
Write req 6c77d0 fall in Acc-task data range 6bfbc0 - 6cfbe4, accumulated bytes: 2304
Write req 6c79d0 fall in Acc-task data range 6bfbc0 - 6cfbe4, accumulated bytes: 2308
Write req 6c8fd0 fall in Acc-task data range 6bfbc0 - 6cfbe4, accumulated bytes: 2312
Write req 6c7bd0 fall in Acc-task data range 6bfbc0 - 6cfbe4, accumulated bytes: 2316
Write req 6c7dd0 fall in Acc-task data range 6bfbc0 - 6cfbe4, accumulated bytes: 2320
Write req 6c7fd0 fall in Acc-task data range 6bfbc0 - 6cfbe4, accumulated bytes: 2324
Write req 6c81d0 fall in Acc-task data range 6bfbc0 - 6cfbe4, accumulated bytes: 2328
Write req 6c83d0 fall in Acc-task data range 6bfbc0 - 6cfbe4, accumulated bytes: 2332
Write req 6c85d0 fall in Acc-task data range 6bfbc0 - 6cfbe4, accumulated bytes: 2336
Write req 6c87d0 fall in Acc-task data range 6bfbc0 - 6cfbe4, accumulated bytes: 2340
Write req 6c89d0 fall in Acc-task data range 6bfbc0 - 6cfbe4, accumulated bytes: 2344
Write req 6c8dd0 fall in Acc-task data range 6bfbc0 - 6cfbe4, accumulated bytes: 2348
Write req 6c91d0 fall in Acc-task data range 6bfbc0 - 6cfbe4, accumulated bytes: 2352
Write req 6c93d0 fall in Acc-task data range 6bfbc0 - 6cfbe4, accumulated bytes: 2356
Write req 6ca5d0 fall in Acc-task data range 6bfbc0 - 6cfbe4, accumulated bytes: 2360
Write req 6c95d0 fall in Acc-task data range 6bfbc0 - 6cfbe4, accumulated bytes: 2364
Write req 6ca9d0 fall in Acc-task data range 6bfbc0 - 6cfbe4, accumulated bytes: 2368
Write req 6cabd0 fall in Acc-task data range 6bfbc0 - 6cfbe4, accumulated bytes: 2372
Write req 6c97d0 fall in Acc-task data range 6bfbc0 - 6cfbe4, accumulated bytes: 2376
Write req 6cadd0 fall in Acc-task data range 6bfbc0 - 6cfbe4, accumulated bytes: 2380
Write req 6c99d0 fall in Acc-task data range 6bfbc0 - 6cfbe4, accumulated bytes: 2384
Write req 6c9bd0 fall in Acc-task data range 6bfbc0 - 6cfbe4, accumulated bytes: 2388
Write req 6c9dd0 fall in Acc-task data range 6bfbc0 - 6cfbe4, accumulated bytes: 2392
Write req 6c9fd0 fall in Acc-task data range 6bfbc0 - 6cfbe4, accumulated bytes: 2396
Write req 6ca1d0 fall in Acc-task data range 6bfbc0 - 6cfbe4, accumulated bytes: 2400
Write req 6ca3d0 fall in Acc-task data range 6bfbc0 - 6cfbe4, accumulated bytes: 2404
Write req 6ca7d0 fall in Acc-task data range 6bfbc0 - 6cfbe4, accumulated bytes: 2408
Write req 6cafd0 fall in Acc-task data range 6bfbc0 - 6cfbe4, accumulated bytes: 2412
Write req 6cb1d0 fall in Acc-task data range 6bfbc0 - 6cfbe4, accumulated bytes: 2416
Write req 6cb3d0 fall in Acc-task data range 6bfbc0 - 6cfbe4, accumulated bytes: 2420
Write req 6cc5d0 fall in Acc-task data range 6bfbc0 - 6cfbe4, accumulated bytes: 2424
Write req 6cb5d0 fall in Acc-task data range 6bfbc0 - 6cfbe4, accumulated bytes: 2428
Write req 6cc9d0 fall in Acc-task data range 6bfbc0 - 6cfbe4, accumulated bytes: 2432
Write req 6cb7d0 fall in Acc-task data range 6bfbc0 - 6cfbe4, accumulated bytes: 2436
Write req 6cb9d0 fall in Acc-task data range 6bfbc0 - 6cfbe4, accumulated bytes: 2440
Write req 6cbbd0 fall in Acc-task data range 6bfbc0 - 6cfbe4, accumulated bytes: 2444
Write req 6cbdd0 fall in Acc-task data range 6bfbc0 - 6cfbe4, accumulated bytes: 2448
Write req 6cbfd0 fall in Acc-task data range 6bfbc0 - 6cfbe4, accumulated bytes: 2452
Write req 6cc1d0 fall in Acc-task data range 6bfbc0 - 6cfbe4, accumulated bytes: 2456
Write req 6cc3d0 fall in Acc-task data range 6bfbc0 - 6cfbe4, accumulated bytes: 2460
Write req 6cc7d0 fall in Acc-task data range 6bfbc0 - 6cfbe4, accumulated bytes: 2464
Write req 6ccbd0 fall in Acc-task data range 6bfbc0 - 6cfbe4, accumulated bytes: 2468
Write req 6ccdd0 fall in Acc-task data range 6bfbc0 - 6cfbe4, accumulated bytes: 2472
Write req 6ccfd0 fall in Acc-task data range 6bfbc0 - 6cfbe4, accumulated bytes: 2476
Write req 6cd1d0 fall in Acc-task data range 6bfbc0 - 6cfbe4, accumulated bytes: 2480
# of written bytes for Acc-task Data 6c11c0: 20
Evict req 6c11c0 fall in Acc-task data range 6bfbc0 - 6cfbe4(ctr disable), accum: 576
ACC Recv evict: 6c11c0
Write req 6cd3d0 fall in Acc-task data range 6bfbc0 - 6cfbe4, accumulated bytes: 2484
Write req 6cd5d0 fall in Acc-task data range 6bfbc0 - 6cfbe4, accumulated bytes: 2488
Write req 6ce9d0 fall in Acc-task data range 6bfbc0 - 6cfbe4, accumulated bytes: 2492
Write req 6cd7d0 fall in Acc-task data range 6bfbc0 - 6cfbe4, accumulated bytes: 2496
Write req 6cd9d0 fall in Acc-task data range 6bfbc0 - 6cfbe4, accumulated bytes: 2500
Write req 6cdbd0 fall in Acc-task data range 6bfbc0 - 6cfbe4, accumulated bytes: 2504
Write req 6cedd0 fall in Acc-task data range 6bfbc0 - 6cfbe4, accumulated bytes: 2508
Write req 6cddd0 fall in Acc-task data range 6bfbc0 - 6cfbe4, accumulated bytes: 2512
Write req 6cdfd0 fall in Acc-task data range 6bfbc0 - 6cfbe4, accumulated bytes: 2516
Write req 6ce1d0 fall in Acc-task data range 6bfbc0 - 6cfbe4, accumulated bytes: 2520
Write req 6ce3d0 fall in Acc-task data range 6bfbc0 - 6cfbe4, accumulated bytes: 2524
Write req 6ce5d0 fall in Acc-task data range 6bfbc0 - 6cfbe4, accumulated bytes: 2528
Write req 6ce7d0 fall in Acc-task data range 6bfbc0 - 6cfbe4, accumulated bytes: 2532
Write req 6cebd0 fall in Acc-task data range 6bfbc0 - 6cfbe4, accumulated bytes: 2536
Write req 6cefd0 fall in Acc-task data range 6bfbc0 - 6cfbe4, accumulated bytes: 2540
Write req 6cf1d0 fall in Acc-task data range 6bfbc0 - 6cfbe4, accumulated bytes: 2544
Write req 6cf3d0 fall in Acc-task data range 6bfbc0 - 6cfbe4, accumulated bytes: 2548
Write req 6cf5d0 fall in Acc-task data range 6bfbc0 - 6cfbe4, accumulated bytes: 2552
Write req 6cf7d0 fall in Acc-task data range 6bfbc0 - 6cfbe4, accumulated bytes: 2556
Write req 6cf9d0 fall in Acc-task data range 6bfbc0 - 6cfbe4, accumulated bytes: 2560
Write req 6bfbd4 fall in Acc-task data range 6bfbc0 - 6cfbe4, accumulated bytes: 2564
Write req 6bfdd4 fall in Acc-task data range 6bfbc0 - 6cfbe4, accumulated bytes: 2568
Write req 6c0fd4 fall in Acc-task data range 6bfbc0 - 6cfbe4, accumulated bytes: 2572
Write req 6c11d4 fall in Acc-task data range 6bfbc0 - 6cfbe4, accumulated bytes: 2576
Write req 6bffd4 fall in Acc-task data range 6bfbc0 - 6cfbe4, accumulated bytes: 2580
Write req 6c01d4 fall in Acc-task data range 6bfbc0 - 6cfbe4, accumulated bytes: 2584
Write req 6c03d4 fall in Acc-task data range 6bfbc0 - 6cfbe4, accumulated bytes: 2588
Write req 6c05d4 fall in Acc-task data range 6bfbc0 - 6cfbe4, accumulated bytes: 2592
Write req 6c07d4 fall in Acc-task data range 6bfbc0 - 6cfbe4, accumulated bytes: 2596
Write req 6c09d4 fall in Acc-task data range 6bfbc0 - 6cfbe4, accumulated bytes: 2600
Write req 6c0bd4 fall in Acc-task data range 6bfbc0 - 6cfbe4, accumulated bytes: 2604
Write req 6c13d4 fall in Acc-task data range 6bfbc0 - 6cfbe4, accumulated bytes: 2608
Write req 6c0dd4 fall in Acc-task data range 6bfbc0 - 6cfbe4, accumulated bytes: 2612
Write req 6c29d4 fall in Acc-task data range 6bfbc0 - 6cfbe4, accumulated bytes: 2616
Write req 6c15d4 fall in Acc-task data range 6bfbc0 - 6cfbe4, accumulated bytes: 2620
Write req 6c2bd4 fall in Acc-task data range 6bfbc0 - 6cfbe4, accumulated bytes: 2624
Write req 6c27d4 fall in Acc-task data range 6bfbc0 - 6cfbe4, accumulated bytes: 2628
Write req 6c2dd4 fall in Acc-task data range 6bfbc0 - 6cfbe4, accumulated bytes: 2632
Write req 6c2fd4 fall in Acc-task data range 6bfbc0 - 6cfbe4, accumulated bytes: 2636
Write req 6c17d4 fall in Acc-task data range 6bfbc0 - 6cfbe4, accumulated bytes: 2640
Write req 6c19d4 fall in Acc-task data range 6bfbc0 - 6cfbe4, accumulated bytes: 2644
Write req 6c1bd4 fall in Acc-task data range 6bfbc0 - 6cfbe4, accumulated bytes: 2648
Write req 6c1dd4 fall in Acc-task data range 6bfbc0 - 6cfbe4, accumulated bytes: 2652
Write req 6c1fd4 fall in Acc-task data range 6bfbc0 - 6cfbe4, accumulated bytes: 2656
Write req 6c21d4 fall in Acc-task data range 6bfbc0 - 6cfbe4, accumulated bytes: 2660
Write req 6c23d4 fall in Acc-task data range 6bfbc0 - 6cfbe4, accumulated bytes: 2664
Write req 6c25d4 fall in Acc-task data range 6bfbc0 - 6cfbe4, accumulated bytes: 2668
[...]
827969000: system.datapaths.dma: -- Done
827969000: system.datapaths.dma: TransmitList: 1, inRetry: 0
827970000: system.datapaths.dma: Too many outstanding requests, try again next cycle...
827971000: system.datapaths.dma: Too many outstanding requests, try again next cycle...
827972000: system.datapaths.dma: Too many outstanding requests, try again next cycle...
827973000: system.datapaths.dma: Too many outstanding requests, try again next cycle...
827974000: system.datapaths.dma: Too many outstanding requests, try again next cycle...
827975000: system.datapaths.dma: Too many outstanding requests, try again next cycle...
827976000: system.datapaths.dma: Too many outstanding requests, try again next cycle...
827977000: system.datapaths.dma: Too many outstanding requests, try again next cycle...
827978000: system.datapaths.dma: Too many outstanding requests, try again next cycle...
827979000: system.datapaths.dma: Too many outstanding requests, try again next cycle...
827980000: system.datapaths.dma: Too many outstanding requests, try again next cycle...
827981000: system.datapaths.dma: Too many outstanding requests, try again next cycle...
827982000: system.datapaths.dma: Too many outstanding requests, try again next cycle...
827983000: system.datapaths.dma: Too many outstanding requests, try again next cycle...
827984000: system.datapaths.dma: Too many outstanding requests, try again next cycle...
827985000: system.datapaths.dma: Too many outstanding requests, try again next cycle...
827986000: system.datapaths.dma: Too many outstanding requests, try again next cycle...
827987000: system.datapaths.dma: Too many outstanding requests, try again next cycle...
827988000: system.datapaths.dma: Too many outstanding requests, try again next cycle...
827989000: system.datapaths.dma: Too many outstanding requests, try again next cycle...
827990000: system.datapaths.dma: Too many outstanding requests, try again next cycle...
827991000: system.datapaths.dma: Too many outstanding requests, try again next cycle...
827992000: system.datapaths.dma: Too many outstanding requests, try again next cycle...
827993000: system.datapaths.dma: Too many outstanding requests, try again next cycle...
827994000: system.datapaths.dma: Too many outstanding requests, try again next cycle...
827995000: system.datapaths.dma: Too many outstanding requests, try again next cycle...
827996000: system.datapaths.dma: Too many outstanding requests, try again next cycle...
827997000: system.datapaths.dma: Too many outstanding requests, try again next cycle...
827998000: system.datapaths.dma: Too many outstanding requests, try again next cycle...
827999000: system.datapaths.dma: Too many outstanding requests, try again next cycle...
828000000: system.datapaths.dma: Too many outstanding requests, try again next cycle...
828001000: system.datapaths.dma: Too many outstanding requests, try again next cycle...
828002000: system.datapaths.dma: Receiving DMA response for node 2461551, Acc trace address 0x51315fac with label sol and size 64.
828002000: system.datapaths.dma: Received response 932288 for addr: 0x40, addr: 0xfddc size: 65536 nb: 0, tot: 7 sched <extra arg>% outstanding:<extra arg>%
828002000: system.datapaths.dma: Trying to send WriteReq addr 0xe3bc0 of size 36 on Channel 0
828002000: system.datapaths.dma: -- Channel 0, remaining requests: 0, total bytes: 65536, issued bytes: 65052
828002000: system.datapaths.dma: Sent WriteReq addr 0xe3bc0 with size 36 from channel 0. 
828002000: system.datapaths.dma: -- Switch to the next channel 0
828002000: system.datapaths.dma: -- Channel 0, remaining requests: 0, total bytes: 65536, issued bytes: 65052
828002000: system.datapaths.dma: -- Done
828002000: system.datapaths.dma: TransmitList: 1, inRetry: 0
828003000: system.datapaths.dma: Receiving DMA response for node 2461551, Acc trace address 0x51315fec with label sol and size 64.
828003000: system.datapaths.dma: Received response 932352 for addr: 0x40, addr: 0xfe1c size: 65536 nb: 0, tot: 7 sched <extra arg>% outstanding:<extra arg>%
828003000: system.datapaths.dma: Channel 0 is empty(size: 0), switch to the next
828003000: system.datapaths.dma: -- Switch to the next channel 0
828003000: system.datapaths.dma: -- Channel 0, remaining requests: 0, total bytes: 65536, issued bytes: 65116
828003000: system.datapaths.dma: -- Done
828004000: system.datapaths.dma: Receiving DMA response for node 2461551, Acc trace address 0x5131602c with label sol and size 64.
828004000: system.datapaths.dma: Received response 932416 for addr: 0x40, addr: 0xfe5c size: 65536 nb: 0, tot: 6 sched <extra arg>% outstanding:<extra arg>%
828004000: system.datapaths.dma: Channel 0 is empty(size: 0), switch to the next
828004000: system.datapaths.dma: -- Switch to the next channel 0
828004000: system.datapaths.dma: -- Channel 0, remaining requests: 0, total bytes: 65536, issued bytes: 65180
828004000: system.datapaths.dma: -- Done
828005000: system.datapaths.dma: Receiving DMA response for node 2461551, Acc trace address 0x5131606c with label sol and size 64.
828005000: system.datapaths.dma: Received response 932480 for addr: 0x40, addr: 0xfe9c size: 65536 nb: 0, tot: 5 sched <extra arg>% outstanding:<extra arg>%
828005000: system.datapaths.dma: Channel 0 is empty(size: 0), switch to the next
828005000: system.datapaths.dma: -- Switch to the next channel 0
828005000: system.datapaths.dma: -- Channel 0, remaining requests: 0, total bytes: 65536, issued bytes: 65244
828005000: system.datapaths.dma: -- Done
828006000: system.datapaths.dma: Receiving DMA response for node 2461551, Acc trace address 0x513160ac with label sol and size 64.
828006000: system.datapaths.dma: Received response 932544 for addr: 0x40, addr: 0xfedc size: 65536 nb: 0, tot: 4 sched <extra arg>% outstanding:<extra arg>%
828006000: system.datapaths.dma: Channel 0 is empty(size: 0), switch to the next
828006000: system.datapaths.dma: -- Switch to the next channel 0
828006000: system.datapaths.dma: -- Channel 0, remaining requests: 0, total bytes: 65536, issued bytes: 65308
828006000: system.datapaths.dma: -- Done
828007000: system.datapaths.dma: Receiving DMA response for node 2461551, Acc trace address 0x513160ec with label sol and size 64.
828007000: system.datapaths.dma: Received response 932608 for addr: 0x40, addr: 0xff1c size: 65536 nb: 0, tot: 3 sched <extra arg>% outstanding:<extra arg>%
828007000: system.datapaths.dma: Channel 0 is empty(size: 0), switch to the next
828007000: system.datapaths.dma: -- Switch to the next channel 0
828007000: system.datapaths.dma: -- Channel 0, remaining requests: 0, total bytes: 65536, issued bytes: 65372
828007000: system.datapaths.dma: -- Done
828008000: system.datapaths.dma: Receiving DMA response for node 2461551, Acc trace address 0x5131612c with label sol and size 64.
828008000: system.datapaths.dma: Received response 932672 for addr: 0x40, addr: 0xff5c size: 65536 nb: 0, tot: 2 sched <extra arg>% outstanding:<extra arg>%
828008000: system.datapaths.dma: Channel 0 is empty(size: 0), switch to the next
828008000: system.datapaths.dma: -- Switch to the next channel 0
828008000: system.datapaths.dma: -- Channel 0, remaining requests: 0, total bytes: 65536, issued bytes: 65436
828008000: system.datapaths.dma: -- Done
828009000: system.datapaths.dma: Channel 0 is empty(size: 0), switch to the next
828009000: system.datapaths.dma: -- Switch to the next channel 0
828009000: system.datapaths.dma: -- Channel 0, remaining requests: 0, total bytes: 65536, issued bytes: 65436
828009000: system.datapaths.dma: -- Done
828009000: system.datapaths.dma: Receiving DMA response for node 2461551, Acc trace address 0x5131616c with label sol and size 64.
828009000: system.datapaths.dma: Received response 932736 for addr: 0x40, addr: 0xff9c size: 65536 nb: 0, tot: 1 sched <extra arg>% outstanding:<extra arg>%
828010000: system.datapaths.dma: Channel 0 is empty(size: 0), switch to the next
828010000: system.datapaths.dma: -- Switch to the next channel 0
828010000: system.datapaths.dma: -- Channel 0, remaining requests: 0, total bytes: 65536, issued bytes: 65500
828010000: system.datapaths.dma: -- Done
828011000: system.datapaths.dma: Channel 0 is empty(size: 0), switch to the next
828011000: system.datapaths.dma: -- Switch to the next channel 0
828011000: system.datapaths.dma: -- Channel 0, remaining requests: 0, total bytes: 65536, issued bytes: 65500
828011000: system.datapaths.dma: -- Done
828012000: system.datapaths.dma: Channel 0 is empty(size: 0), switch to the next
828012000: system.datapaths.dma: -- Switch to the next channel 0
828012000: system.datapaths.dma: -- Channel 0, remaining requests: 0, total bytes: 65536, issued bytes: 65500
828012000: system.datapaths.dma: -- Done
828013000: system.datapaths.dma: Channel 0 is empty(size: 0), switch to the next
828013000: system.datapaths.dma: -- Switch to the next channel 0
828013000: system.datapaths.dma: -- Channel 0, remaining requests: 0, total bytes: 65536, issued bytes: 65500
828013000: system.datapaths.dma: -- Done
828014000: system.datapaths.dma: Channel 0 is empty(size: 0), switch to the next
828014000: system.datapaths.dma: -- Switch to the next channel 0
828014000: system.datapaths.dma: -- Channel 0, remaining requests: 0, total bytes: 65536, issued bytes: 65500
828014000: system.datapaths.dma: -- Done
828015000: system.datapaths.dma: Channel 0 is empty(size: 0), switch to the next
828015000: system.datapaths.dma: -- Switch to the next channel 0
828015000: system.datapaths.dma: -- Channel 0, remaining requests: 0, total bytes: 65536, issued bytes: 65500
828015000: system.datapaths.dma: -- Done
828016000: system.datapaths.dma: Channel 0 is empty(size: 0), switch to the next
828016000: system.datapaths.dma: -- Switch to the next channel 0
828016000: system.datapaths.dma: -- Channel 0, remaining requests: 0, total bytes: 65536, issued bytes: 65500
828016000: system.datapaths.dma: -- Done
828017000: system.datapaths.dma: Channel 0 is empty(size: 0), switch to the next
828017000: system.datapaths.dma: -- Switch to the next channel 0
828017000: system.datapaths.dma: -- Channel 0, remaining requests: 0, total bytes: 65536, issued bytes: 65500
828017000: system.datapaths.dma: -- Done
828018000: system.datapaths.dma: Channel 0 is empty(size: 0), switch to the next
828018000: system.datapaths.dma: -- Switch to the next channel 0
828018000: system.datapaths.dma: -- Channel 0, remaining requests: 0, total bytes: 65536, issued bytes: 65500
828018000: system.datapaths.dma: -- Done
828019000: system.datapaths.dma: Channel 0 is empty(size: 0), switch to the next
828019000: system.datapaths.dma: -- Switch to the next channel 0
828019000: system.datapaths.dma: -- Channel 0, remaining requests: 0, total bytes: 65536, issued bytes: 65500
828019000: system.datapaths.dma: -- Done
828020000: system.datapaths.dma: Channel 0 is empty(size: 0), switch to the next
828020000: system.datapaths.dma: -- Switch to the next channel 0
828020000: system.datapaths.dma: -- Channel 0, remaining requests: 0, total bytes: 65536, issued bytes: 65500
828020000: system.datapaths.dma: -- Done
828021000: system.datapaths.dma: Channel 0 is empty(size: 0), switch to the next
828021000: system.datapaths.dma: -- Switch to the next channel 0
828021000: system.datapaths.dma: -- Channel 0, remaining requests: 0, total bytes: 65536, issued bytes: 65500
828021000: system.datapaths.dma: -- Done
828022000: system.datapaths.dma: Channel 0 is empty(size: 0), switch to the next
828022000: system.datapaths.dma: -- Switch to the next channel 0
828022000: system.datapaths.dma: -- Channel 0, remaining requests: 0, total bytes: 65536, issued bytes: 65500
828022000: system.datapaths.dma: -- Done
828023000: system.datapaths.dma: Channel 0 is empty(size: 0), switch to the next
828023000: system.datapaths.dma: -- Switch to the next channel 0
828023000: system.datapaths.dma: -- Channel 0, remaining requests: 0, total bytes: 65536, issued bytes: 65500
828023000: system.datapaths.dma: -- Done
828024000: system.datapaths.dma: Channel 0 is empty(size: 0), switch to the next
828024000: system.datapaths.dma: -- Switch to the next channel 0
828024000: system.datapaths.dma: -- Channel 0, remaining requests: 0, total bytes: 65536, issued bytes: 65500
828024000: system.datapaths.dma: -- Done
828025000: system.datapaths.dma: Channel 0 is empty(size: 0), switch to the next
828025000: system.datapaths.dma: -- Switch to the next channel 0
828025000: system.datapaths.dma: -- Channel 0, remaining requests: 0, total bytes: 65536, issued bytes: 65500
828025000: system.datapaths.dma: -- Done
828026000: system.datapaths.dma: Channel 0 is empty(size: 0), switch to the next
828026000: system.datapaths.dma: -- Switch to the next channel 0
828026000: system.datapaths.dma: -- Channel 0, remaining requests: 0, total bytes: 65536, issued bytes: 65500
828026000: system.datapaths.dma: -- Done
828027000: system.datapaths.dma: Channel 0 is empty(size: 0), switch to the next
828027000: system.datapaths.dma: -- Switch to the next channel 0
828027000: system.datapaths.dma: -- Channel 0, remaining requests: 0, total bytes: 65536, issued bytes: 65500
828027000: system.datapaths.dma: -- Done
828028000: system.datapaths.dma: Channel 0 is empty(size: 0), switch to the next
828028000: system.datapaths.dma: -- Switch to the next channel 0
828028000: system.datapaths.dma: -- Channel 0, remaining requests: 0, total bytes: 65536, issued bytes: 65500
828028000: system.datapaths.dma: -- Done
828029000: system.datapaths.dma: Channel 0 is empty(size: 0), switch to the next
828029000: system.datapaths.dma: -- Switch to the next channel 0
828029000: system.datapaths.dma: -- Channel 0, remaining requests: 0, total bytes: 65536, issued bytes: 65500
828029000: system.datapaths.dma: -- Done
828030000: system.datapaths.dma: Channel 0 is empty(size: 0), switch to the next
828030000: system.datapaths.dma: -- Switch to the next channel 0
828030000: system.datapaths.dma: -- Channel 0, remaining requests: 0, total bytes: 65536, issued bytes: 65500
828030000: system.datapaths.dma: -- Done
828031000: system.datapaths.dma: Channel 0 is empty(size: 0), switch to the next
828031000: system.datapaths.dma: -- Switch to the next channel 0
828031000: system.datapaths.dma: -- Channel 0, remaining requests: 0, total bytes: 65536, issued bytes: 65500
828031000: system.datapaths.dma: -- Done
828032000: system.datapaths.dma: Channel 0 is empty(size: 0), switch to the next
828032000: system.datapaths.dma: -- Switch to the next channel 0
828032000: system.datapaths.dma: -- Channel 0, remaining requests: 0, total bytes: 65536, issued bytes: 65500
828032000: system.datapaths.dma: -- Done
828033000: system.datapaths.dma: Channel 0 is empty(size: 0), switch to the next
828033000: system.datapaths.dma: -- Switch to the next channel 0
828033000: system.datapaths.dma: -- Channel 0, remaining requests: 0, total bytes: 65536, issued bytes: 65500
828033000: system.datapaths.dma: -- Done
828034000: system.datapaths.dma: Channel 0 is empty(size: 0), switch to the next
828034000: system.datapaths.dma: -- Switch to the next channel 0
828034000: system.datapaths.dma: -- Channel 0, remaining requests: 0, total bytes: 65536, issued bytes: 65500
828034000: system.datapaths.dma: -- Done
828035000: system.datapaths.dma: Channel 0 is empty(size: 0), switch to the next
828035000: system.datapaths.dma: -- Switch to the next channel 0
828035000: system.datapaths.dma: -- Channel 0, remaining requests: 0, total bytes: 65536, issued bytes: 65500
828035000: system.datapaths.dma: -- Done
828036000: system.datapaths.dma: Channel 0 is empty(size: 0), switch to the next
828036000: system.datapaths.dma: -- Switch to the next channel 0
828036000: system.datapaths.dma: -- Channel 0, remaining requests: 0, total bytes: 65536, issued bytes: 65500
828036000: system.datapaths.dma: -- Done
828037000: system.datapaths.dma: Channel 0 is empty(size: 0), switch to the next
828037000: system.datapaths.dma: -- Switch to the next channel 0
828037000: system.datapaths.dma: -- Channel 0, remaining requests: 0, total bytes: 65536, issued bytes: 65500
828037000: system.datapaths.dma: -- Done
828038000: system.datapaths.dma: Channel 0 is empty(size: 0), switch to the next
828038000: system.datapaths.dma: -- Switch to the next channel 0
828038000: system.datapaths.dma: -- Channel 0, remaining requests: 0, total bytes: 65536, issued bytes: 65500
828038000: system.datapaths.dma: -- Done
828039000: system.datapaths.dma: Channel 0 is empty(size: 0), switch to the next
828039000: system.datapaths.dma: -- Switch to the next channel 0
828039000: system.datapaths.dma: -- Channel 0, remaining requests: 0, total bytes: 65536, issued bytes: 65500
828039000: system.datapaths.dma: -- Done
828040000: system.datapaths.dma: Channel 0 is empty(size: 0), switch to the next
828040000: system.datapaths.dma: -- Switch to the next channel 0
828040000: system.datapaths.dma: -- Channel 0, remaining requests: 0, total bytes: 65536, issued bytes: 65500
828040000: system.datapaths.dma: -- Done
828041000: system.datapaths.dma: Channel 0 is empty(size: 0), switch to the next
828041000: system.datapaths.dma: -- Switch to the next channel 0
828041000: system.datapaths.dma: -- Channel 0, remaining requests: 0, total bytes: 65536, issued bytes: 65500
828041000: system.datapaths.dma: -- Done
828042000: system.datapaths.dma: Channel 0 is empty(size: 0), switch to the next
828042000: system.datapaths.dma: -- Switch to the next channel 0
828042000: system.datapaths.dma: -- Channel 0, remaining requests: 0, total bytes: 65536, issued bytes: 65500
828042000: system.datapaths.dma: -- Done
828042000: system.datapaths.dma: Receiving DMA response for node 2461551, Acc trace address 0x513161ac with label sol and size 36.
828042000: system.datapaths.dma: Received response 932800 for addr: 0x24, addr: 0xffdc size: 65536 nb: 0, tot: 0 sched <extra arg>% outstanding:<extra arg>%
828042010: system.datapaths: completeDmaRequest for node 2461551.
828043000: system.datapaths.dma: Channel 0 is empty(size: 0), switch to the next
828043000: system.datapaths.dma: -- All DMA actions are done
828043000: system.datapaths.dma: -- Done
===============================
        Aladdin Results        
===============================
Running : ./outputs/stencil-stencil2d-gem5-accel
Cycle : 18068 cycles
Avg Power: 192.219 mW
Idle FU Cycles: 8400 cycles
Avg FU Power: 168.991 mW
Avg FU Dynamic Power: 116.905 mW
Avg FU leakage Power: 52.0862 mW
Avg MEM Power: 23.2278 mW
Avg MEM Dynamic Power: 3.92013 mW
Avg MEM Leakage Power: 19.3077 mW
Total Area: 5.53108e+06 uM^2
FU Area: 4.23544e+06 uM^2
MEM Area: 1.29563e+06 uM^2
Num of Multipliers (32-bit): 172
Num of Adders (32-bit): 96
Num of Shifters (32-bit): 37
Num of Registers (32-bit): 16233
===============================
        Aladdin Results        
===============================
DMA load cycles: 2169
DMA store cycles: 5183
DMA load cycles(overlapped): 881
Compute cycles(overlapped with DMA load): 6
Memory cycles(overlapped with DMA load): 875
DMA store cycles(overlapped): 1
Compute cycles: 6088
Memory cycles: 349
Overlapped cycles: 4278
Idle cycles: 5880
All idle cycles: 7351
Num of TLB hits: 0
Num of TLB misses: 0
Num of DMA Load Req: 598
Num of DMA Req: 1623
DMA ACC-task bytes: 38272
Evicted ACC-task bytes: 46080
Total received ACC-task bytes: 84352
TLB Miss Cycles: 0
Translation Cycles: 0
Average TLB Miss Latency: -nan
Average Translation Latency: 0.000000
Average DMA Load Request Latency: 40.000000
DMA Read Hit: 598
DMA Read Miss: 0
DMA Read Hit Rate: 1.000000
828043000: system.datapaths: Sent finished signal.
828063000: system.datapaths.cache_port: recvTimingResp for address: 0xbd800 WriteResp
828063000: system.datapaths.cache_port: recvTimingResp for control signal access: 0xbd800
Success.
Exiting @ tick 832953500 because target called exit()
