
---------- Begin Simulation Statistics ----------
sim_seconds                                  0.002501                       # Number of seconds simulated
sim_ticks                                  2500776500                       # Number of ticks simulated
final_tick                                 2500776500                       # Number of ticks from beginning of simulation (restored from checkpoints and never reset)
sim_freq                                 1000000000000                       # Frequency of simulated ticks
host_inst_rate                                  15856                       # Simulator instruction rate (inst/s)
host_op_rate                                    39390                       # Simulator op (including micro ops) rate (op/s)
host_tick_rate                               17660111                       # Simulator tick rate (ticks/s)
host_mem_usage                                2712984                       # Number of bytes of host memory used
host_seconds                                   141.61                       # Real time elapsed on the host
sim_insts                                     2245250                       # Number of instructions simulated
sim_ops                                       5577922                       # Number of ops (including micro ops) simulated
system.voltage_domain.voltage                       1                       # Voltage in Volts
system.clk_domain.clock                          1000                       # Clock period in ticks
system.mem_ctrls0.bytes_read::ruby.dir_cntrl0        85824                       # Number of bytes read from this memory
system.mem_ctrls0.bytes_read::total             85824                       # Number of bytes read from this memory
system.mem_ctrls0.bytes_written::ruby.dir_cntrl0        16384                       # Number of bytes written to this memory
system.mem_ctrls0.bytes_written::total          16384                       # Number of bytes written to this memory
system.mem_ctrls0.num_reads::ruby.dir_cntrl0         1341                       # Number of read requests responded to by this memory
system.mem_ctrls0.num_reads::total               1341                       # Number of read requests responded to by this memory
system.mem_ctrls0.num_writes::ruby.dir_cntrl0          256                       # Number of write requests responded to by this memory
system.mem_ctrls0.num_writes::total               256                       # Number of write requests responded to by this memory
system.mem_ctrls0.bw_read::ruby.dir_cntrl0     34318941                       # Total read bandwidth from this memory (bytes/s)
system.mem_ctrls0.bw_read::total             34318941                       # Total read bandwidth from this memory (bytes/s)
system.mem_ctrls0.bw_write::ruby.dir_cntrl0      6551565                       # Write bandwidth from this memory (bytes/s)
system.mem_ctrls0.bw_write::total             6551565                       # Write bandwidth from this memory (bytes/s)
system.mem_ctrls0.bw_total::ruby.dir_cntrl0     40870506                       # Total bandwidth to/from this memory (bytes/s)
system.mem_ctrls0.bw_total::total            40870506                       # Total bandwidth to/from this memory (bytes/s)
system.mem_ctrls0.readReqs                       1341                       # Number of read requests accepted
system.mem_ctrls0.writeReqs                       256                       # Number of write requests accepted
system.mem_ctrls0.readBursts                     2682                       # Number of DRAM read bursts, including those serviced by the write queue
system.mem_ctrls0.writeBursts                     512                       # Number of DRAM write bursts, including those merged in the write queue
system.mem_ctrls0.bytesReadDRAM                 85824                       # Total number of bytes read from DRAM
system.mem_ctrls0.bytesReadWrQ                      0                       # Total number of bytes read from write queue
system.mem_ctrls0.bytesWritten                  15904                       # Total number of bytes written to DRAM
system.mem_ctrls0.bytesReadSys                  85824                       # Total read bytes from the system interface side
system.mem_ctrls0.bytesWrittenSys               16384                       # Total written bytes from the system interface side
system.mem_ctrls0.servicedByWrQ                     0                       # Number of DRAM read bursts serviced by the write queue
system.mem_ctrls0.mergedWrBursts                    0                       # Number of DRAM write bursts merged with an existing one
system.mem_ctrls0.neitherReadNorWriteReqs            0                       # Number of requests that are neither read nor write
system.mem_ctrls0.perBankRdBursts::0              254                       # Per bank write bursts
system.mem_ctrls0.perBankRdBursts::1              494                       # Per bank write bursts
system.mem_ctrls0.perBankRdBursts::2              468                       # Per bank write bursts
system.mem_ctrls0.perBankRdBursts::3              404                       # Per bank write bursts
system.mem_ctrls0.perBankRdBursts::4              504                       # Per bank write bursts
system.mem_ctrls0.perBankRdBursts::5              182                       # Per bank write bursts
system.mem_ctrls0.perBankRdBursts::6              184                       # Per bank write bursts
system.mem_ctrls0.perBankRdBursts::7              192                       # Per bank write bursts
system.mem_ctrls0.perBankWrBursts::0               97                       # Per bank write bursts
system.mem_ctrls0.perBankWrBursts::1                0                       # Per bank write bursts
system.mem_ctrls0.perBankWrBursts::2                0                       # Per bank write bursts
system.mem_ctrls0.perBankWrBursts::3                0                       # Per bank write bursts
system.mem_ctrls0.perBankWrBursts::4               16                       # Per bank write bursts
system.mem_ctrls0.perBankWrBursts::5              128                       # Per bank write bursts
system.mem_ctrls0.perBankWrBursts::6              128                       # Per bank write bursts
system.mem_ctrls0.perBankWrBursts::7              128                       # Per bank write bursts
system.mem_ctrls0.numRdRetry                        0                       # Number of times read queue was full causing retry
system.mem_ctrls0.numWrRetry                      365                       # Number of times write queue was full causing retry
system.mem_ctrls0.totGap                   2500464000                       # Total gap between requests
system.mem_ctrls0.readPktSize::0                    0                       # Read request sizes (log2)
system.mem_ctrls0.readPktSize::1                    0                       # Read request sizes (log2)
system.mem_ctrls0.readPktSize::2                    0                       # Read request sizes (log2)
system.mem_ctrls0.readPktSize::3                    0                       # Read request sizes (log2)
system.mem_ctrls0.readPktSize::4                    0                       # Read request sizes (log2)
system.mem_ctrls0.readPktSize::5                 2682                       # Read request sizes (log2)
system.mem_ctrls0.writePktSize::0                   0                       # Write request sizes (log2)
system.mem_ctrls0.writePktSize::1                   0                       # Write request sizes (log2)
system.mem_ctrls0.writePktSize::2                   0                       # Write request sizes (log2)
system.mem_ctrls0.writePktSize::3                   0                       # Write request sizes (log2)
system.mem_ctrls0.writePktSize::4                   0                       # Write request sizes (log2)
system.mem_ctrls0.writePktSize::5                 512                       # Write request sizes (log2)
system.mem_ctrls0.rdQLenPdf::0                   1263                       # What read queue length does an incoming req see
system.mem_ctrls0.rdQLenPdf::1                   1265                       # What read queue length does an incoming req see
system.mem_ctrls0.rdQLenPdf::2                     63                       # What read queue length does an incoming req see
system.mem_ctrls0.rdQLenPdf::3                     63                       # What read queue length does an incoming req see
system.mem_ctrls0.rdQLenPdf::4                     10                       # What read queue length does an incoming req see
system.mem_ctrls0.rdQLenPdf::5                      8                       # What read queue length does an incoming req see
system.mem_ctrls0.rdQLenPdf::6                      3                       # What read queue length does an incoming req see
system.mem_ctrls0.rdQLenPdf::7                      3                       # What read queue length does an incoming req see
system.mem_ctrls0.rdQLenPdf::8                      2                       # What read queue length does an incoming req see
system.mem_ctrls0.rdQLenPdf::9                      2                       # What read queue length does an incoming req see
system.mem_ctrls0.rdQLenPdf::10                     0                       # What read queue length does an incoming req see
system.mem_ctrls0.rdQLenPdf::11                     0                       # What read queue length does an incoming req see
system.mem_ctrls0.rdQLenPdf::12                     0                       # What read queue length does an incoming req see
system.mem_ctrls0.rdQLenPdf::13                     0                       # What read queue length does an incoming req see
system.mem_ctrls0.rdQLenPdf::14                     0                       # What read queue length does an incoming req see
system.mem_ctrls0.rdQLenPdf::15                     0                       # What read queue length does an incoming req see
system.mem_ctrls0.rdQLenPdf::16                     0                       # What read queue length does an incoming req see
system.mem_ctrls0.rdQLenPdf::17                     0                       # What read queue length does an incoming req see
system.mem_ctrls0.rdQLenPdf::18                     0                       # What read queue length does an incoming req see
system.mem_ctrls0.rdQLenPdf::19                     0                       # What read queue length does an incoming req see
system.mem_ctrls0.rdQLenPdf::20                     0                       # What read queue length does an incoming req see
system.mem_ctrls0.rdQLenPdf::21                     0                       # What read queue length does an incoming req see
system.mem_ctrls0.rdQLenPdf::22                     0                       # What read queue length does an incoming req see
system.mem_ctrls0.rdQLenPdf::23                     0                       # What read queue length does an incoming req see
system.mem_ctrls0.rdQLenPdf::24                     0                       # What read queue length does an incoming req see
system.mem_ctrls0.rdQLenPdf::25                     0                       # What read queue length does an incoming req see
system.mem_ctrls0.rdQLenPdf::26                     0                       # What read queue length does an incoming req see
system.mem_ctrls0.rdQLenPdf::27                     0                       # What read queue length does an incoming req see
system.mem_ctrls0.rdQLenPdf::28                     0                       # What read queue length does an incoming req see
system.mem_ctrls0.rdQLenPdf::29                     0                       # What read queue length does an incoming req see
system.mem_ctrls0.rdQLenPdf::30                     0                       # What read queue length does an incoming req see
system.mem_ctrls0.rdQLenPdf::31                     0                       # What read queue length does an incoming req see
system.mem_ctrls0.wrQLenPdf::0                      1                       # What write queue length does an incoming req see
system.mem_ctrls0.wrQLenPdf::1                      1                       # What write queue length does an incoming req see
system.mem_ctrls0.wrQLenPdf::2                      1                       # What write queue length does an incoming req see
system.mem_ctrls0.wrQLenPdf::3                      1                       # What write queue length does an incoming req see
system.mem_ctrls0.wrQLenPdf::4                      1                       # What write queue length does an incoming req see
system.mem_ctrls0.wrQLenPdf::5                      1                       # What write queue length does an incoming req see
system.mem_ctrls0.wrQLenPdf::6                      1                       # What write queue length does an incoming req see
system.mem_ctrls0.wrQLenPdf::7                      1                       # What write queue length does an incoming req see
system.mem_ctrls0.wrQLenPdf::8                      1                       # What write queue length does an incoming req see
system.mem_ctrls0.wrQLenPdf::9                      1                       # What write queue length does an incoming req see
system.mem_ctrls0.wrQLenPdf::10                     1                       # What write queue length does an incoming req see
system.mem_ctrls0.wrQLenPdf::11                     1                       # What write queue length does an incoming req see
system.mem_ctrls0.wrQLenPdf::12                     1                       # What write queue length does an incoming req see
system.mem_ctrls0.wrQLenPdf::13                     1                       # What write queue length does an incoming req see
system.mem_ctrls0.wrQLenPdf::14                     1                       # What write queue length does an incoming req see
system.mem_ctrls0.wrQLenPdf::15                     1                       # What write queue length does an incoming req see
system.mem_ctrls0.wrQLenPdf::16                     1                       # What write queue length does an incoming req see
system.mem_ctrls0.wrQLenPdf::17                     1                       # What write queue length does an incoming req see
system.mem_ctrls0.wrQLenPdf::18                     1                       # What write queue length does an incoming req see
system.mem_ctrls0.wrQLenPdf::19                     1                       # What write queue length does an incoming req see
system.mem_ctrls0.wrQLenPdf::20                     1                       # What write queue length does an incoming req see
system.mem_ctrls0.wrQLenPdf::21                     1                       # What write queue length does an incoming req see
system.mem_ctrls0.wrQLenPdf::22                     1                       # What write queue length does an incoming req see
system.mem_ctrls0.wrQLenPdf::23                     1                       # What write queue length does an incoming req see
system.mem_ctrls0.wrQLenPdf::24                     1                       # What write queue length does an incoming req see
system.mem_ctrls0.wrQLenPdf::25                     1                       # What write queue length does an incoming req see
system.mem_ctrls0.wrQLenPdf::26                     2                       # What write queue length does an incoming req see
system.mem_ctrls0.wrQLenPdf::27                     5                       # What write queue length does an incoming req see
system.mem_ctrls0.wrQLenPdf::28                     5                       # What write queue length does an incoming req see
system.mem_ctrls0.wrQLenPdf::29                     6                       # What write queue length does an incoming req see
system.mem_ctrls0.wrQLenPdf::30                     9                       # What write queue length does an incoming req see
system.mem_ctrls0.wrQLenPdf::31                     7                       # What write queue length does an incoming req see
system.mem_ctrls0.wrQLenPdf::32                     4                       # What write queue length does an incoming req see
system.mem_ctrls0.wrQLenPdf::33                     3                       # What write queue length does an incoming req see
system.mem_ctrls0.wrQLenPdf::34                     1                       # What write queue length does an incoming req see
system.mem_ctrls0.wrQLenPdf::35                     1                       # What write queue length does an incoming req see
system.mem_ctrls0.wrQLenPdf::36                     1                       # What write queue length does an incoming req see
system.mem_ctrls0.wrQLenPdf::37                     1                       # What write queue length does an incoming req see
system.mem_ctrls0.wrQLenPdf::38                     3                       # What write queue length does an incoming req see
system.mem_ctrls0.wrQLenPdf::39                     5                       # What write queue length does an incoming req see
system.mem_ctrls0.wrQLenPdf::40                     4                       # What write queue length does an incoming req see
system.mem_ctrls0.wrQLenPdf::41                     4                       # What write queue length does an incoming req see
system.mem_ctrls0.wrQLenPdf::42                     4                       # What write queue length does an incoming req see
system.mem_ctrls0.wrQLenPdf::43                     2                       # What write queue length does an incoming req see
system.mem_ctrls0.wrQLenPdf::44                     1                       # What write queue length does an incoming req see
system.mem_ctrls0.wrQLenPdf::45                     1                       # What write queue length does an incoming req see
system.mem_ctrls0.wrQLenPdf::46                     1                       # What write queue length does an incoming req see
system.mem_ctrls0.wrQLenPdf::47                     1                       # What write queue length does an incoming req see
system.mem_ctrls0.wrQLenPdf::48                     2                       # What write queue length does an incoming req see
system.mem_ctrls0.wrQLenPdf::49                     3                       # What write queue length does an incoming req see
system.mem_ctrls0.wrQLenPdf::50                     4                       # What write queue length does an incoming req see
system.mem_ctrls0.wrQLenPdf::51                     5                       # What write queue length does an incoming req see
system.mem_ctrls0.wrQLenPdf::52                     3                       # What write queue length does an incoming req see
system.mem_ctrls0.wrQLenPdf::53                     3                       # What write queue length does an incoming req see
system.mem_ctrls0.wrQLenPdf::54                     3                       # What write queue length does an incoming req see
system.mem_ctrls0.wrQLenPdf::55                     1                       # What write queue length does an incoming req see
system.mem_ctrls0.wrQLenPdf::56                     1                       # What write queue length does an incoming req see
system.mem_ctrls0.wrQLenPdf::57                     1                       # What write queue length does an incoming req see
system.mem_ctrls0.wrQLenPdf::58                     1                       # What write queue length does an incoming req see
system.mem_ctrls0.wrQLenPdf::59                     1                       # What write queue length does an incoming req see
system.mem_ctrls0.wrQLenPdf::60                     4                       # What write queue length does an incoming req see
system.mem_ctrls0.wrQLenPdf::61                     5                       # What write queue length does an incoming req see
system.mem_ctrls0.wrQLenPdf::62                   190                       # What write queue length does an incoming req see
system.mem_ctrls0.wrQLenPdf::63                   188                       # What write queue length does an incoming req see
system.mem_ctrls0.bytesPerActivate::samples          575                       # Bytes accessed per row activation
system.mem_ctrls0.bytesPerActivate::mean   176.473043                       # Bytes accessed per row activation
system.mem_ctrls0.bytesPerActivate::gmean   132.730030                       # Bytes accessed per row activation
system.mem_ctrls0.bytesPerActivate::stdev   153.220113                       # Bytes accessed per row activation
system.mem_ctrls0.bytesPerActivate::0-63            1      0.17%      0.17% # Bytes accessed per row activation
system.mem_ctrls0.bytesPerActivate::64-127          193     33.57%     33.74% # Bytes accessed per row activation
system.mem_ctrls0.bytesPerActivate::128-191          240     41.74%     75.48% # Bytes accessed per row activation
system.mem_ctrls0.bytesPerActivate::192-255           28      4.87%     80.35% # Bytes accessed per row activation
system.mem_ctrls0.bytesPerActivate::256-319           10      1.74%     82.09% # Bytes accessed per row activation
system.mem_ctrls0.bytesPerActivate::320-383            7      1.22%     83.30% # Bytes accessed per row activation
system.mem_ctrls0.bytesPerActivate::384-447            5      0.87%     84.17% # Bytes accessed per row activation
system.mem_ctrls0.bytesPerActivate::448-511            6      1.04%     85.22% # Bytes accessed per row activation
system.mem_ctrls0.bytesPerActivate::512-575           85     14.78%    100.00% # Bytes accessed per row activation
system.mem_ctrls0.bytesPerActivate::total          575                       # Bytes accessed per row activation
system.mem_ctrls0.rdPerTurnAround::samples            1                       # Reads before turning the bus around for writes
system.mem_ctrls0.rdPerTurnAround::mean          2636                       # Reads before turning the bus around for writes
system.mem_ctrls0.rdPerTurnAround::gmean  2636.000000                       # Reads before turning the bus around for writes
system.mem_ctrls0.rdPerTurnAround::stdev          nan                       # Reads before turning the bus around for writes
system.mem_ctrls0.rdPerTurnAround::2560-2687            1    100.00%    100.00% # Reads before turning the bus around for writes
system.mem_ctrls0.rdPerTurnAround::total            1                       # Reads before turning the bus around for writes
system.mem_ctrls0.wrPerTurnAround::samples            1                       # Writes before turning the bus around for reads
system.mem_ctrls0.wrPerTurnAround::mean           497                       # Writes before turning the bus around for reads
system.mem_ctrls0.wrPerTurnAround::gmean   497.000000                       # Writes before turning the bus around for reads
system.mem_ctrls0.wrPerTurnAround::stdev          nan                       # Writes before turning the bus around for reads
system.mem_ctrls0.wrPerTurnAround::496-503            1    100.00%    100.00% # Writes before turning the bus around for reads
system.mem_ctrls0.wrPerTurnAround::total            1                       # Writes before turning the bus around for reads
system.mem_ctrls0.totQLat                    36731996                       # Total ticks spent queuing
system.mem_ctrls0.totMemAccLat               90371996                       # Total ticks spent from burst creation until serviced by the DRAM
system.mem_ctrls0.totBusLat                  13410000                       # Total ticks spent in databus transfers
system.mem_ctrls0.avgQLat                    13695.75                       # Average queueing delay per DRAM burst
system.mem_ctrls0.avgBusLat                   5000.00                       # Average bus latency per DRAM burst
system.mem_ctrls0.avgMemAccLat               33695.75                       # Average memory access latency per DRAM burst
system.mem_ctrls0.avgRdBW                       34.32                       # Average DRAM read bandwidth in MiByte/s
system.mem_ctrls0.avgWrBW                        6.36                       # Average achieved write bandwidth in MiByte/s
system.mem_ctrls0.avgRdBWSys                    34.32                       # Average system read bandwidth in MiByte/s
system.mem_ctrls0.avgWrBWSys                     6.55                       # Average system write bandwidth in MiByte/s
system.mem_ctrls0.peakBW                      6400.00                       # Theoretical peak bandwidth in MiByte/s
system.mem_ctrls0.busUtil                        0.64                       # Data bus utilization in percentage
system.mem_ctrls0.busUtilRead                    0.54                       # Data bus utilization in percentage for reads
system.mem_ctrls0.busUtilWrite                   0.10                       # Data bus utilization in percentage for writes
system.mem_ctrls0.avgRdQLen                      2.03                       # Average read queue length when enqueuing
system.mem_ctrls0.avgWrQLen                      0.17                       # Average write queue length when enqueuing
system.mem_ctrls0.readRowHits                    2137                       # Number of row buffer hits during reads
system.mem_ctrls0.writeRowHits                    464                       # Number of row buffer hits during writes
system.mem_ctrls0.readRowHitRate                79.68                       # Row buffer hit rate for reads
system.mem_ctrls0.writeRowHitRate               90.62                       # Row buffer hit rate for writes
system.mem_ctrls0.avgGap                   1565725.74                       # Average gap between requests
system.mem_ctrls0.pageHitRate                   81.43                       # Row buffer hit rate, read and write combined
system.mem_ctrls0_0.actEnergy                 1026375                       # Energy for activate commands per rank (pJ)
system.mem_ctrls0_0.preEnergy                  540960                       # Energy for precharge commands per rank (pJ)
system.mem_ctrls0_0.readEnergy                3144624                       # Energy for read commands per rank (pJ)
system.mem_ctrls0_0.writeEnergy                465192                       # Energy for write commands per rank (pJ)
system.mem_ctrls0_0.refreshEnergy            15571920                       # Energy for refresh commands per rank (pJ)
system.mem_ctrls0_0.actBackEnergy            37492692                       # Energy for active background per rank (pJ)
system.mem_ctrls0_0.preBackEnergy        54042292.800000                       # Energy for precharge background per rank (pJ)
system.mem_ctrls0_0.totalEnergy          112284055.800000                       # Total energy per rank (pJ)
system.mem_ctrls0_0.averagePower            44.911152                       # Core power per rank (mW)
system.mem_ctrls0_0.memoryStateTime::IDLE   1636542500                       # Time in different power states
system.mem_ctrls0_0.memoryStateTime::REF     83720000                       # Time in different power states
system.mem_ctrls0_0.memoryStateTime::PRE_PDN            0                       # Time in different power states
system.mem_ctrls0_0.memoryStateTime::ACT    779893500                       # Time in different power states
system.mem_ctrls0_0.memoryStateTime::ACT_PDN            0                       # Time in different power states
system.mem_ctrls1.bytes_read::ruby.dir_cntrl0        86528                       # Number of bytes read from this memory
system.mem_ctrls1.bytes_read::total             86528                       # Number of bytes read from this memory
system.mem_ctrls1.bytes_written::ruby.dir_cntrl0        16384                       # Number of bytes written to this memory
system.mem_ctrls1.bytes_written::total          16384                       # Number of bytes written to this memory
system.mem_ctrls1.num_reads::ruby.dir_cntrl0         1352                       # Number of read requests responded to by this memory
system.mem_ctrls1.num_reads::total               1352                       # Number of read requests responded to by this memory
system.mem_ctrls1.num_writes::ruby.dir_cntrl0          256                       # Number of write requests responded to by this memory
system.mem_ctrls1.num_writes::total               256                       # Number of write requests responded to by this memory
system.mem_ctrls1.bw_read::ruby.dir_cntrl0     34600453                       # Total read bandwidth from this memory (bytes/s)
system.mem_ctrls1.bw_read::total             34600453                       # Total read bandwidth from this memory (bytes/s)
system.mem_ctrls1.bw_write::ruby.dir_cntrl0      6551565                       # Write bandwidth from this memory (bytes/s)
system.mem_ctrls1.bw_write::total             6551565                       # Write bandwidth from this memory (bytes/s)
system.mem_ctrls1.bw_total::ruby.dir_cntrl0     41152018                       # Total bandwidth to/from this memory (bytes/s)
system.mem_ctrls1.bw_total::total            41152018                       # Total bandwidth to/from this memory (bytes/s)
system.mem_ctrls1.readReqs                       1353                       # Number of read requests accepted
system.mem_ctrls1.writeReqs                       256                       # Number of write requests accepted
system.mem_ctrls1.readBursts                     2706                       # Number of DRAM read bursts, including those serviced by the write queue
system.mem_ctrls1.writeBursts                     512                       # Number of DRAM write bursts, including those merged in the write queue
system.mem_ctrls1.bytesReadDRAM                 86592                       # Total number of bytes read from DRAM
system.mem_ctrls1.bytesReadWrQ                      0                       # Total number of bytes read from write queue
system.mem_ctrls1.bytesWritten                  15488                       # Total number of bytes written to DRAM
system.mem_ctrls1.bytesReadSys                  86592                       # Total read bytes from the system interface side
system.mem_ctrls1.bytesWrittenSys               16384                       # Total written bytes from the system interface side
system.mem_ctrls1.servicedByWrQ                     0                       # Number of DRAM read bursts serviced by the write queue
system.mem_ctrls1.mergedWrBursts                    0                       # Number of DRAM write bursts merged with an existing one
system.mem_ctrls1.neitherReadNorWriteReqs            0                       # Number of requests that are neither read nor write
system.mem_ctrls1.perBankRdBursts::0              268                       # Per bank write bursts
system.mem_ctrls1.perBankRdBursts::1              486                       # Per bank write bursts
system.mem_ctrls1.perBankRdBursts::2              472                       # Per bank write bursts
system.mem_ctrls1.perBankRdBursts::3              406                       # Per bank write bursts
system.mem_ctrls1.perBankRdBursts::4              510                       # Per bank write bursts
system.mem_ctrls1.perBankRdBursts::5              198                       # Per bank write bursts
system.mem_ctrls1.perBankRdBursts::6              176                       # Per bank write bursts
system.mem_ctrls1.perBankRdBursts::7              190                       # Per bank write bursts
system.mem_ctrls1.perBankWrBursts::0               82                       # Per bank write bursts
system.mem_ctrls1.perBankWrBursts::1                0                       # Per bank write bursts
system.mem_ctrls1.perBankWrBursts::2                0                       # Per bank write bursts
system.mem_ctrls1.perBankWrBursts::3                0                       # Per bank write bursts
system.mem_ctrls1.perBankWrBursts::4               18                       # Per bank write bursts
system.mem_ctrls1.perBankWrBursts::5              128                       # Per bank write bursts
system.mem_ctrls1.perBankWrBursts::6              128                       # Per bank write bursts
system.mem_ctrls1.perBankWrBursts::7              128                       # Per bank write bursts
system.mem_ctrls1.numRdRetry                        0                       # Number of times read queue was full causing retry
system.mem_ctrls1.numWrRetry                        1                       # Number of times write queue was full causing retry
system.mem_ctrls1.totGap                   2500720000                       # Total gap between requests
system.mem_ctrls1.readPktSize::0                    0                       # Read request sizes (log2)
system.mem_ctrls1.readPktSize::1                    0                       # Read request sizes (log2)
system.mem_ctrls1.readPktSize::2                    0                       # Read request sizes (log2)
system.mem_ctrls1.readPktSize::3                    0                       # Read request sizes (log2)
system.mem_ctrls1.readPktSize::4                    0                       # Read request sizes (log2)
system.mem_ctrls1.readPktSize::5                 2706                       # Read request sizes (log2)
system.mem_ctrls1.writePktSize::0                   0                       # Write request sizes (log2)
system.mem_ctrls1.writePktSize::1                   0                       # Write request sizes (log2)
system.mem_ctrls1.writePktSize::2                   0                       # Write request sizes (log2)
system.mem_ctrls1.writePktSize::3                   0                       # Write request sizes (log2)
system.mem_ctrls1.writePktSize::4                   0                       # Write request sizes (log2)
system.mem_ctrls1.writePktSize::5                 512                       # Write request sizes (log2)
system.mem_ctrls1.rdQLenPdf::0                   1266                       # What read queue length does an incoming req see
system.mem_ctrls1.rdQLenPdf::1                   1273                       # What read queue length does an incoming req see
system.mem_ctrls1.rdQLenPdf::2                     68                       # What read queue length does an incoming req see
system.mem_ctrls1.rdQLenPdf::3                     63                       # What read queue length does an incoming req see
system.mem_ctrls1.rdQLenPdf::4                     14                       # What read queue length does an incoming req see
system.mem_ctrls1.rdQLenPdf::5                     13                       # What read queue length does an incoming req see
system.mem_ctrls1.rdQLenPdf::6                      5                       # What read queue length does an incoming req see
system.mem_ctrls1.rdQLenPdf::7                      4                       # What read queue length does an incoming req see
system.mem_ctrls1.rdQLenPdf::8                      0                       # What read queue length does an incoming req see
system.mem_ctrls1.rdQLenPdf::9                      0                       # What read queue length does an incoming req see
system.mem_ctrls1.rdQLenPdf::10                     0                       # What read queue length does an incoming req see
system.mem_ctrls1.rdQLenPdf::11                     0                       # What read queue length does an incoming req see
system.mem_ctrls1.rdQLenPdf::12                     0                       # What read queue length does an incoming req see
system.mem_ctrls1.rdQLenPdf::13                     0                       # What read queue length does an incoming req see
system.mem_ctrls1.rdQLenPdf::14                     0                       # What read queue length does an incoming req see
system.mem_ctrls1.rdQLenPdf::15                     0                       # What read queue length does an incoming req see
system.mem_ctrls1.rdQLenPdf::16                     0                       # What read queue length does an incoming req see
system.mem_ctrls1.rdQLenPdf::17                     0                       # What read queue length does an incoming req see
system.mem_ctrls1.rdQLenPdf::18                     0                       # What read queue length does an incoming req see
system.mem_ctrls1.rdQLenPdf::19                     0                       # What read queue length does an incoming req see
system.mem_ctrls1.rdQLenPdf::20                     0                       # What read queue length does an incoming req see
system.mem_ctrls1.rdQLenPdf::21                     0                       # What read queue length does an incoming req see
system.mem_ctrls1.rdQLenPdf::22                     0                       # What read queue length does an incoming req see
system.mem_ctrls1.rdQLenPdf::23                     0                       # What read queue length does an incoming req see
system.mem_ctrls1.rdQLenPdf::24                     0                       # What read queue length does an incoming req see
system.mem_ctrls1.rdQLenPdf::25                     0                       # What read queue length does an incoming req see
system.mem_ctrls1.rdQLenPdf::26                     0                       # What read queue length does an incoming req see
system.mem_ctrls1.rdQLenPdf::27                     0                       # What read queue length does an incoming req see
system.mem_ctrls1.rdQLenPdf::28                     0                       # What read queue length does an incoming req see
system.mem_ctrls1.rdQLenPdf::29                     0                       # What read queue length does an incoming req see
system.mem_ctrls1.rdQLenPdf::30                     0                       # What read queue length does an incoming req see
system.mem_ctrls1.rdQLenPdf::31                     0                       # What read queue length does an incoming req see
system.mem_ctrls1.wrQLenPdf::0                      1                       # What write queue length does an incoming req see
system.mem_ctrls1.wrQLenPdf::1                      1                       # What write queue length does an incoming req see
system.mem_ctrls1.wrQLenPdf::2                      1                       # What write queue length does an incoming req see
system.mem_ctrls1.wrQLenPdf::3                      1                       # What write queue length does an incoming req see
system.mem_ctrls1.wrQLenPdf::4                      1                       # What write queue length does an incoming req see
system.mem_ctrls1.wrQLenPdf::5                      1                       # What write queue length does an incoming req see
system.mem_ctrls1.wrQLenPdf::6                      1                       # What write queue length does an incoming req see
system.mem_ctrls1.wrQLenPdf::7                      1                       # What write queue length does an incoming req see
system.mem_ctrls1.wrQLenPdf::8                      1                       # What write queue length does an incoming req see
system.mem_ctrls1.wrQLenPdf::9                      1                       # What write queue length does an incoming req see
system.mem_ctrls1.wrQLenPdf::10                     1                       # What write queue length does an incoming req see
system.mem_ctrls1.wrQLenPdf::11                     1                       # What write queue length does an incoming req see
system.mem_ctrls1.wrQLenPdf::12                     1                       # What write queue length does an incoming req see
system.mem_ctrls1.wrQLenPdf::13                     1                       # What write queue length does an incoming req see
system.mem_ctrls1.wrQLenPdf::14                     1                       # What write queue length does an incoming req see
system.mem_ctrls1.wrQLenPdf::15                     1                       # What write queue length does an incoming req see
system.mem_ctrls1.wrQLenPdf::16                     1                       # What write queue length does an incoming req see
system.mem_ctrls1.wrQLenPdf::17                     1                       # What write queue length does an incoming req see
system.mem_ctrls1.wrQLenPdf::18                     1                       # What write queue length does an incoming req see
system.mem_ctrls1.wrQLenPdf::19                     1                       # What write queue length does an incoming req see
system.mem_ctrls1.wrQLenPdf::20                     1                       # What write queue length does an incoming req see
system.mem_ctrls1.wrQLenPdf::21                     1                       # What write queue length does an incoming req see
system.mem_ctrls1.wrQLenPdf::22                     1                       # What write queue length does an incoming req see
system.mem_ctrls1.wrQLenPdf::23                     1                       # What write queue length does an incoming req see
system.mem_ctrls1.wrQLenPdf::24                     1                       # What write queue length does an incoming req see
system.mem_ctrls1.wrQLenPdf::25                     1                       # What write queue length does an incoming req see
system.mem_ctrls1.wrQLenPdf::26                     2                       # What write queue length does an incoming req see
system.mem_ctrls1.wrQLenPdf::27                     5                       # What write queue length does an incoming req see
system.mem_ctrls1.wrQLenPdf::28                     5                       # What write queue length does an incoming req see
system.mem_ctrls1.wrQLenPdf::29                     7                       # What write queue length does an incoming req see
system.mem_ctrls1.wrQLenPdf::30                    10                       # What write queue length does an incoming req see
system.mem_ctrls1.wrQLenPdf::31                     7                       # What write queue length does an incoming req see
system.mem_ctrls1.wrQLenPdf::32                     4                       # What write queue length does an incoming req see
system.mem_ctrls1.wrQLenPdf::33                     3                       # What write queue length does an incoming req see
system.mem_ctrls1.wrQLenPdf::34                     1                       # What write queue length does an incoming req see
system.mem_ctrls1.wrQLenPdf::35                     1                       # What write queue length does an incoming req see
system.mem_ctrls1.wrQLenPdf::36                     3                       # What write queue length does an incoming req see
system.mem_ctrls1.wrQLenPdf::37                     5                       # What write queue length does an incoming req see
system.mem_ctrls1.wrQLenPdf::38                     4                       # What write queue length does an incoming req see
system.mem_ctrls1.wrQLenPdf::39                     4                       # What write queue length does an incoming req see
system.mem_ctrls1.wrQLenPdf::40                     4                       # What write queue length does an incoming req see
system.mem_ctrls1.wrQLenPdf::41                     2                       # What write queue length does an incoming req see
system.mem_ctrls1.wrQLenPdf::42                     1                       # What write queue length does an incoming req see
system.mem_ctrls1.wrQLenPdf::43                     1                       # What write queue length does an incoming req see
system.mem_ctrls1.wrQLenPdf::44                     1                       # What write queue length does an incoming req see
system.mem_ctrls1.wrQLenPdf::45                     1                       # What write queue length does an incoming req see
system.mem_ctrls1.wrQLenPdf::46                     2                       # What write queue length does an incoming req see
system.mem_ctrls1.wrQLenPdf::47                     3                       # What write queue length does an incoming req see
system.mem_ctrls1.wrQLenPdf::48                     4                       # What write queue length does an incoming req see
system.mem_ctrls1.wrQLenPdf::49                     5                       # What write queue length does an incoming req see
system.mem_ctrls1.wrQLenPdf::50                     3                       # What write queue length does an incoming req see
system.mem_ctrls1.wrQLenPdf::51                     3                       # What write queue length does an incoming req see
system.mem_ctrls1.wrQLenPdf::52                     3                       # What write queue length does an incoming req see
system.mem_ctrls1.wrQLenPdf::53                     1                       # What write queue length does an incoming req see
system.mem_ctrls1.wrQLenPdf::54                     1                       # What write queue length does an incoming req see
system.mem_ctrls1.wrQLenPdf::55                     1                       # What write queue length does an incoming req see
system.mem_ctrls1.wrQLenPdf::56                     1                       # What write queue length does an incoming req see
system.mem_ctrls1.wrQLenPdf::57                     1                       # What write queue length does an incoming req see
system.mem_ctrls1.wrQLenPdf::58                     3                       # What write queue length does an incoming req see
system.mem_ctrls1.wrQLenPdf::59                     4                       # What write queue length does an incoming req see
system.mem_ctrls1.wrQLenPdf::60                     9                       # What write queue length does an incoming req see
system.mem_ctrls1.wrQLenPdf::61                    13                       # What write queue length does an incoming req see
system.mem_ctrls1.wrQLenPdf::62                   182                       # What write queue length does an incoming req see
system.mem_ctrls1.wrQLenPdf::63                   176                       # What write queue length does an incoming req see
system.mem_ctrls1.bytesPerActivate::samples          587                       # Bytes accessed per row activation
system.mem_ctrls1.bytesPerActivate::mean   173.247019                       # Bytes accessed per row activation
system.mem_ctrls1.bytesPerActivate::gmean   129.889886                       # Bytes accessed per row activation
system.mem_ctrls1.bytesPerActivate::stdev   152.004486                       # Bytes accessed per row activation
system.mem_ctrls1.bytesPerActivate::64-127          212     36.12%     36.12% # Bytes accessed per row activation
system.mem_ctrls1.bytesPerActivate::128-191          234     39.86%     75.98% # Bytes accessed per row activation
system.mem_ctrls1.bytesPerActivate::192-255           26      4.43%     80.41% # Bytes accessed per row activation
system.mem_ctrls1.bytesPerActivate::256-319           12      2.04%     82.45% # Bytes accessed per row activation
system.mem_ctrls1.bytesPerActivate::320-383            6      1.02%     83.48% # Bytes accessed per row activation
system.mem_ctrls1.bytesPerActivate::384-447           10      1.70%     85.18% # Bytes accessed per row activation
system.mem_ctrls1.bytesPerActivate::448-511            3      0.51%     85.69% # Bytes accessed per row activation
system.mem_ctrls1.bytesPerActivate::512-575           84     14.31%    100.00% # Bytes accessed per row activation
system.mem_ctrls1.bytesPerActivate::total          587                       # Bytes accessed per row activation
system.mem_ctrls1.rdPerTurnAround::samples            1                       # Reads before turning the bus around for writes
system.mem_ctrls1.rdPerTurnAround::mean          2646                       # Reads before turning the bus around for writes
system.mem_ctrls1.rdPerTurnAround::gmean  2646.000000                       # Reads before turning the bus around for writes
system.mem_ctrls1.rdPerTurnAround::stdev          nan                       # Reads before turning the bus around for writes
system.mem_ctrls1.rdPerTurnAround::2560-2687            1    100.00%    100.00% # Reads before turning the bus around for writes
system.mem_ctrls1.rdPerTurnAround::total            1                       # Reads before turning the bus around for writes
system.mem_ctrls1.wrPerTurnAround::samples            1                       # Writes before turning the bus around for reads
system.mem_ctrls1.wrPerTurnAround::mean           484                       # Writes before turning the bus around for reads
system.mem_ctrls1.wrPerTurnAround::gmean   484.000000                       # Writes before turning the bus around for reads
system.mem_ctrls1.wrPerTurnAround::stdev          nan                       # Writes before turning the bus around for reads
system.mem_ctrls1.wrPerTurnAround::480-487            1    100.00%    100.00% # Writes before turning the bus around for reads
system.mem_ctrls1.wrPerTurnAround::total            1                       # Writes before turning the bus around for reads
system.mem_ctrls1.totQLat                    39076002                       # Total ticks spent queuing
system.mem_ctrls1.totMemAccLat               93196002                       # Total ticks spent from burst creation until serviced by the DRAM
system.mem_ctrls1.totBusLat                  13530000                       # Total ticks spent in databus transfers
system.mem_ctrls1.avgQLat                    14440.50                       # Average queueing delay per DRAM burst
system.mem_ctrls1.avgBusLat                   5000.00                       # Average bus latency per DRAM burst
system.mem_ctrls1.avgMemAccLat               34440.50                       # Average memory access latency per DRAM burst
system.mem_ctrls1.avgRdBW                       34.63                       # Average DRAM read bandwidth in MiByte/s
system.mem_ctrls1.avgWrBW                        6.19                       # Average achieved write bandwidth in MiByte/s
system.mem_ctrls1.avgRdBWSys                    34.63                       # Average system read bandwidth in MiByte/s
system.mem_ctrls1.avgWrBWSys                     6.55                       # Average system write bandwidth in MiByte/s
system.mem_ctrls1.peakBW                      6400.00                       # Theoretical peak bandwidth in MiByte/s
system.mem_ctrls1.busUtil                        0.64                       # Data bus utilization in percentage
system.mem_ctrls1.busUtilRead                    0.54                       # Data bus utilization in percentage for reads
system.mem_ctrls1.busUtilWrite                   0.10                       # Data bus utilization in percentage for writes
system.mem_ctrls1.avgRdQLen                      2.01                       # Average read queue length when enqueuing
system.mem_ctrls1.avgWrQLen                      0.17                       # Average write queue length when enqueuing
system.mem_ctrls1.readRowHits                    2148                       # Number of row buffer hits during reads
system.mem_ctrls1.writeRowHits                    451                       # Number of row buffer hits during writes
system.mem_ctrls1.readRowHitRate                79.38                       # Row buffer hit rate for reads
system.mem_ctrls1.writeRowHitRate               88.09                       # Row buffer hit rate for writes
system.mem_ctrls1.avgGap                   1554207.58                       # Average gap between requests
system.mem_ctrls1.pageHitRate                   80.76                       # Row buffer hit rate, read and write combined
system.mem_ctrls1_0.actEnergy                 1047795                       # Energy for activate commands per rank (pJ)
system.mem_ctrls1_0.preEnergy            552249.600000                       # Energy for precharge commands per rank (pJ)
system.mem_ctrls1_0.readEnergy                3168144                       # Energy for read commands per rank (pJ)
system.mem_ctrls1_0.writeEnergy                453024                       # Energy for write commands per rank (pJ)
system.mem_ctrls1_0.refreshEnergy            15571920                       # Energy for refresh commands per rank (pJ)
system.mem_ctrls1_0.actBackEnergy            40182444                       # Energy for active background per rank (pJ)
system.mem_ctrls1_0.preBackEnergy        52066185.600000                       # Energy for precharge background per rank (pJ)
system.mem_ctrls1_0.totalEnergy          113041762.200000                       # Total energy per rank (pJ)
system.mem_ctrls1_0.averagePower            45.213540                       # Core power per rank (mW)
system.mem_ctrls1_0.memoryStateTime::IDLE   1575807500                       # Time in different power states
system.mem_ctrls1_0.memoryStateTime::REF     83720000                       # Time in different power states
system.mem_ctrls1_0.memoryStateTime::PRE_PDN            0                       # Time in different power states
system.mem_ctrls1_0.memoryStateTime::ACT    840729500                       # Time in different power states
system.mem_ctrls1_0.memoryStateTime::ACT_PDN            0                       # Time in different power states
system.cpu0.branchPred.lookups                1440067                       # Number of BP lookups
system.cpu0.branchPred.condPredicted          1440067                       # Number of conditional branches predicted
system.cpu0.branchPred.condIncorrect           257056                       # Number of conditional branches incorrect
system.cpu0.branchPred.BTBLookups              211863                       # Number of BTB lookups
system.cpu0.branchPred.BTBHits                 209587                       # Number of BTB hits
system.cpu0.branchPred.BTBCorrect                   0                       # Number of correct BTB predictions (this stat may not work properly.
system.cpu0.branchPred.BTBHitPct            98.925721                       # BTB Hit Percentage
system.cpu0.branchPred.usedRAS                  26678                       # Number of times the RAS was used to get a target.
system.cpu0.branchPred.RASInCorrect               135                       # Number of incorrect RAS predictions.
system.cpu_voltage_domain.voltage                   1                       # Voltage in Volts
system.cpu_clk_domain.clock                       500                       # Clock period in ticks
system.cpu0.apic_clk_domain.clock                8000                       # Clock period in ticks
system.cpu0.workload.num_syscalls                  24                       # Number of system calls
system.cpu0.numCycles                         5001554                       # number of cpu cycles simulated
system.cpu0.numWorkItemsStarted                     1                       # number of work items this cpu started
system.cpu0.numWorkItemsCompleted                   1                       # number of work items this cpu completed
system.cpu0.fetch.icacheStallCycles           2450985                       # Number of cycles fetch is stalled on an Icache miss
system.cpu0.fetch.Insts                       5393576                       # Number of instructions fetch has processed
system.cpu0.fetch.Branches                    1440067                       # Number of branches that fetch encountered
system.cpu0.fetch.predictedBranches            236265                       # Number of branches that fetch has predicted taken
system.cpu0.fetch.Cycles                      2250787                       # Number of cycles fetch has run and was not squashing or blocked
system.cpu0.fetch.SquashCycles                 514229                       # Number of cycles fetch has spent squashing
system.cpu0.fetch.MiscStallCycles                3711                       # Number of cycles fetch has spent waiting on interrupts, or bad addresses, or out of MSHRs
system.cpu0.fetch.PendingTrapStallCycles          421                       # Number of stall cycles due to pending traps
system.cpu0.fetch.PendingQuiesceStallCycles            8                       # Number of stall cycles due to pending quiesce instructions
system.cpu0.fetch.IcacheWaitRetryStallCycles         2898                       # Number of stall cycles due to full MSHR
system.cpu0.fetch.CacheLines                   849070                       # Number of cache lines fetched
system.cpu0.fetch.IcacheSquashes               247067                       # Number of outstanding Icache misses that were squashed
system.cpu0.fetch.rateDist::samples           4965924                       # Number of instructions fetched each cycle (Total)
system.cpu0.fetch.rateDist::mean             2.175175                       # Number of instructions fetched each cycle (Total)
system.cpu0.fetch.rateDist::stdev            3.286538                       # Number of instructions fetched each cycle (Total)
system.cpu0.fetch.rateDist::underflows              0      0.00%      0.00% # Number of instructions fetched each cycle (Total)
system.cpu0.fetch.rateDist::0                 3142903     63.29%     63.29% # Number of instructions fetched each cycle (Total)
system.cpu0.fetch.rateDist::1                  315178      6.35%     69.64% # Number of instructions fetched each cycle (Total)
system.cpu0.fetch.rateDist::2                   25549      0.51%     70.15% # Number of instructions fetched each cycle (Total)
system.cpu0.fetch.rateDist::3                   28653      0.58%     70.73% # Number of instructions fetched each cycle (Total)
system.cpu0.fetch.rateDist::4                   62681      1.26%     71.99% # Number of instructions fetched each cycle (Total)
system.cpu0.fetch.rateDist::5                  290876      5.86%     77.85% # Number of instructions fetched each cycle (Total)
system.cpu0.fetch.rateDist::6                   61353      1.24%     79.08% # Number of instructions fetched each cycle (Total)
system.cpu0.fetch.rateDist::7                   33549      0.68%     79.76% # Number of instructions fetched each cycle (Total)
system.cpu0.fetch.rateDist::8                 1005182     20.24%    100.00% # Number of instructions fetched each cycle (Total)
system.cpu0.fetch.rateDist::overflows               0      0.00%    100.00% # Number of instructions fetched each cycle (Total)
system.cpu0.fetch.rateDist::min_value               0                       # Number of instructions fetched each cycle (Total)
system.cpu0.fetch.rateDist::max_value               8                       # Number of instructions fetched each cycle (Total)
system.cpu0.fetch.rateDist::total             4965924                       # Number of instructions fetched each cycle (Total)
system.cpu0.fetch.branchRate                 0.287924                       # Number of branch fetches per cycle
system.cpu0.fetch.rate                       1.078380                       # Number of inst fetches per cycle
system.cpu0.decode.IdleCycles                 2645665                       # Number of cycles decode is idle
system.cpu0.decode.BlockedCycles               513094                       # Number of cycles decode is blocked
system.cpu0.decode.RunCycles                  1529419                       # Number of cycles decode is running
system.cpu0.decode.UnblockCycles                20632                       # Number of cycles decode is unblocking
system.cpu0.decode.SquashCycles                257114                       # Number of cycles decode is squashing
system.cpu0.decode.DecodedInsts              10480556                       # Number of instructions handled by decode
system.cpu0.rename.SquashCycles                257114                       # Number of cycles rename is squashing
system.cpu0.rename.IdleCycles                 2900795                       # Number of cycles rename is idle
system.cpu0.rename.BlockCycles                 397089                       # Number of cycles rename is blocking
system.cpu0.rename.serializeStallCycles          2426                       # count of cycles rename stalled for serializing inst
system.cpu0.rename.RunCycles                  1286056                       # Number of cycles rename is running
system.cpu0.rename.UnblockCycles               122444                       # Number of cycles rename is unblocking
system.cpu0.rename.RenamedInsts               8508902                       # Number of instructions processed by rename
system.cpu0.rename.ROBFullEvents                   23                       # Number of times rename has blocked due to ROB full
system.cpu0.rename.IQFullEvents                 33476                       # Number of times rename has blocked due to IQ full
system.cpu0.rename.LQFullEvents                 40792                       # Number of times rename has blocked due to LQ full
system.cpu0.rename.SQFullEvents                 40993                       # Number of times rename has blocked due to SQ full
system.cpu0.rename.RenamedOperands           10030556                       # Number of destination operands rename has renamed
system.cpu0.rename.RenameLookups             24516848                       # Number of register rename lookups that rename has made
system.cpu0.rename.int_rename_lookups        13120045                       # Number of integer rename lookups
system.cpu0.rename.fp_rename_lookups           210737                       # Number of floating rename lookups
system.cpu0.rename.CommittedMaps              6222336                       # Number of HB maps that are committed
system.cpu0.rename.UndoneMaps                 3808220                       # Number of HB maps that are undone due to squashing
system.cpu0.rename.serializingInsts                39                       # count of serializing insts renamed
system.cpu0.rename.tempSerializingInsts            38                       # count of temporary serializing insts renamed
system.cpu0.rename.skidInsts                   151751                       # count of insts added to the skid buffer
system.cpu0.memDep0.insertedLoads              479938                       # Number of loads inserted to the mem dependence unit.
system.cpu0.memDep0.insertedStores             448763                       # Number of stores inserted to the mem dependence unit.
system.cpu0.memDep0.conflictingLoads             8686                       # Number of conflicting loads.
system.cpu0.memDep0.conflictingStores              62                       # Number of conflicting stores.
system.cpu0.iq.iqInstsAdded                   6432084                       # Number of instructions added to the IQ (excludes non-spec)
system.cpu0.iq.iqNonSpecInstsAdded                 89                       # Number of non-speculative instructions added to the IQ
system.cpu0.iq.iqInstsIssued                  6511296                       # Number of instructions issued
system.cpu0.iq.iqSquashedInstsIssued             1187                       # Number of squashed instructions issued
system.cpu0.iq.iqSquashedInstsExamined         854251                       # Number of squashed instructions iterated over during squash; mainly for profiling
system.cpu0.iq.iqSquashedOperandsExamined      1261458                       # Number of squashed operands that are examined and possibly removed from graph
system.cpu0.iq.iqSquashedNonSpecRemoved            63                       # Number of squashed non-spec instructions that were removed
system.cpu0.iq.issued_per_cycle::samples      4965924                       # Number of insts issued each cycle
system.cpu0.iq.issued_per_cycle::mean        1.311195                       # Number of insts issued each cycle
system.cpu0.iq.issued_per_cycle::stdev       1.871414                       # Number of insts issued each cycle
system.cpu0.iq.issued_per_cycle::underflows            0      0.00%      0.00% # Number of insts issued each cycle
system.cpu0.iq.issued_per_cycle::0            2732971     55.03%     55.03% # Number of insts issued each cycle
system.cpu0.iq.issued_per_cycle::1             666184     13.42%     68.45% # Number of insts issued each cycle
system.cpu0.iq.issued_per_cycle::2             465973      9.38%     77.83% # Number of insts issued each cycle
system.cpu0.iq.issued_per_cycle::3             200593      4.04%     81.87% # Number of insts issued each cycle
system.cpu0.iq.issued_per_cycle::4             487375      9.81%     91.69% # Number of insts issued each cycle
system.cpu0.iq.issued_per_cycle::5             204236      4.11%     95.80% # Number of insts issued each cycle
system.cpu0.iq.issued_per_cycle::6             130210      2.62%     98.42% # Number of insts issued each cycle
system.cpu0.iq.issued_per_cycle::7              67609      1.36%     99.78% # Number of insts issued each cycle
system.cpu0.iq.issued_per_cycle::8              10773      0.22%    100.00% # Number of insts issued each cycle
system.cpu0.iq.issued_per_cycle::overflows            0      0.00%    100.00% # Number of insts issued each cycle
system.cpu0.iq.issued_per_cycle::min_value            0                       # Number of insts issued each cycle
system.cpu0.iq.issued_per_cycle::max_value            8                       # Number of insts issued each cycle
system.cpu0.iq.issued_per_cycle::total        4965924                       # Number of insts issued each cycle
system.cpu0.iq.fu_full::No_OpClass                  0      0.00%      0.00% # attempts to use FU when none available
system.cpu0.iq.fu_full::IntAlu                  52924     48.58%     48.58% # attempts to use FU when none available
system.cpu0.iq.fu_full::IntMult                     0      0.00%     48.58% # attempts to use FU when none available
system.cpu0.iq.fu_full::IntDiv                      0      0.00%     48.58% # attempts to use FU when none available
system.cpu0.iq.fu_full::FloatAdd                 8219      7.54%     56.13% # attempts to use FU when none available
system.cpu0.iq.fu_full::FloatCmp                    0      0.00%     56.13% # attempts to use FU when none available
system.cpu0.iq.fu_full::FloatCvt                    0      0.00%     56.13% # attempts to use FU when none available
system.cpu0.iq.fu_full::FloatMult                   0      0.00%     56.13% # attempts to use FU when none available
system.cpu0.iq.fu_full::FloatDiv                    0      0.00%     56.13% # attempts to use FU when none available
system.cpu0.iq.fu_full::FloatSqrt                   0      0.00%     56.13% # attempts to use FU when none available
system.cpu0.iq.fu_full::SimdAdd                     0      0.00%     56.13% # attempts to use FU when none available
system.cpu0.iq.fu_full::SimdAddAcc                  0      0.00%     56.13% # attempts to use FU when none available
system.cpu0.iq.fu_full::SimdAlu                     0      0.00%     56.13% # attempts to use FU when none available
system.cpu0.iq.fu_full::SimdCmp                     0      0.00%     56.13% # attempts to use FU when none available
system.cpu0.iq.fu_full::SimdCvt                     0      0.00%     56.13% # attempts to use FU when none available
system.cpu0.iq.fu_full::SimdMisc                    0      0.00%     56.13% # attempts to use FU when none available
system.cpu0.iq.fu_full::SimdMult                    0      0.00%     56.13% # attempts to use FU when none available
system.cpu0.iq.fu_full::SimdMultAcc                 0      0.00%     56.13% # attempts to use FU when none available
system.cpu0.iq.fu_full::SimdShift                   0      0.00%     56.13% # attempts to use FU when none available
system.cpu0.iq.fu_full::SimdShiftAcc                0      0.00%     56.13% # attempts to use FU when none available
system.cpu0.iq.fu_full::SimdSqrt                    0      0.00%     56.13% # attempts to use FU when none available
system.cpu0.iq.fu_full::SimdFloatAdd                0      0.00%     56.13% # attempts to use FU when none available
system.cpu0.iq.fu_full::SimdFloatAlu                0      0.00%     56.13% # attempts to use FU when none available
system.cpu0.iq.fu_full::SimdFloatCmp                0      0.00%     56.13% # attempts to use FU when none available
system.cpu0.iq.fu_full::SimdFloatCvt                0      0.00%     56.13% # attempts to use FU when none available
system.cpu0.iq.fu_full::SimdFloatDiv                0      0.00%     56.13% # attempts to use FU when none available
system.cpu0.iq.fu_full::SimdFloatMisc               0      0.00%     56.13% # attempts to use FU when none available
system.cpu0.iq.fu_full::SimdFloatMult               0      0.00%     56.13% # attempts to use FU when none available
system.cpu0.iq.fu_full::SimdFloatMultAcc            0      0.00%     56.13% # attempts to use FU when none available
system.cpu0.iq.fu_full::SimdFloatSqrt               0      0.00%     56.13% # attempts to use FU when none available
system.cpu0.iq.fu_full::MemRead                 47740     43.82%     99.95% # attempts to use FU when none available
system.cpu0.iq.fu_full::MemWrite                   53      0.05%    100.00% # attempts to use FU when none available
system.cpu0.iq.fu_full::IprAccess                   0      0.00%    100.00% # attempts to use FU when none available
system.cpu0.iq.fu_full::InstPrefetch                0      0.00%    100.00% # attempts to use FU when none available
system.cpu0.iq.FU_type_0::No_OpClass           549936      8.45%      8.45% # Type of FU issued
system.cpu0.iq.FU_type_0::IntAlu              4651268     71.43%     79.88% # Type of FU issued
system.cpu0.iq.FU_type_0::IntMult               23752      0.36%     80.24% # Type of FU issued
system.cpu0.iq.FU_type_0::IntDiv                   29      0.00%     80.24% # Type of FU issued
system.cpu0.iq.FU_type_0::FloatAdd             100405      1.54%     81.79% # Type of FU issued
system.cpu0.iq.FU_type_0::FloatCmp                  0      0.00%     81.79% # Type of FU issued
system.cpu0.iq.FU_type_0::FloatCvt                  0      0.00%     81.79% # Type of FU issued
system.cpu0.iq.FU_type_0::FloatMult                 0      0.00%     81.79% # Type of FU issued
system.cpu0.iq.FU_type_0::FloatDiv                  0      0.00%     81.79% # Type of FU issued
system.cpu0.iq.FU_type_0::FloatSqrt                 0      0.00%     81.79% # Type of FU issued
system.cpu0.iq.FU_type_0::SimdAdd                   0      0.00%     81.79% # Type of FU issued
system.cpu0.iq.FU_type_0::SimdAddAcc                0      0.00%     81.79% # Type of FU issued
system.cpu0.iq.FU_type_0::SimdAlu                   0      0.00%     81.79% # Type of FU issued
system.cpu0.iq.FU_type_0::SimdCmp                   0      0.00%     81.79% # Type of FU issued
system.cpu0.iq.FU_type_0::SimdCvt                   0      0.00%     81.79% # Type of FU issued
system.cpu0.iq.FU_type_0::SimdMisc                  0      0.00%     81.79% # Type of FU issued
system.cpu0.iq.FU_type_0::SimdMult                  0      0.00%     81.79% # Type of FU issued
system.cpu0.iq.FU_type_0::SimdMultAcc               0      0.00%     81.79% # Type of FU issued
system.cpu0.iq.FU_type_0::SimdShift                 0      0.00%     81.79% # Type of FU issued
system.cpu0.iq.FU_type_0::SimdShiftAcc              0      0.00%     81.79% # Type of FU issued
system.cpu0.iq.FU_type_0::SimdSqrt                  0      0.00%     81.79% # Type of FU issued
system.cpu0.iq.FU_type_0::SimdFloatAdd              0      0.00%     81.79% # Type of FU issued
system.cpu0.iq.FU_type_0::SimdFloatAlu              0      0.00%     81.79% # Type of FU issued
system.cpu0.iq.FU_type_0::SimdFloatCmp              0      0.00%     81.79% # Type of FU issued
system.cpu0.iq.FU_type_0::SimdFloatCvt              0      0.00%     81.79% # Type of FU issued
system.cpu0.iq.FU_type_0::SimdFloatDiv              0      0.00%     81.79% # Type of FU issued
system.cpu0.iq.FU_type_0::SimdFloatMisc             0      0.00%     81.79% # Type of FU issued
system.cpu0.iq.FU_type_0::SimdFloatMult             0      0.00%     81.79% # Type of FU issued
system.cpu0.iq.FU_type_0::SimdFloatMultAcc            0      0.00%     81.79% # Type of FU issued
system.cpu0.iq.FU_type_0::SimdFloatSqrt             0      0.00%     81.79% # Type of FU issued
system.cpu0.iq.FU_type_0::MemRead              741764     11.39%     93.18% # Type of FU issued
system.cpu0.iq.FU_type_0::MemWrite             444142      6.82%    100.00% # Type of FU issued
system.cpu0.iq.FU_type_0::IprAccess                 0      0.00%    100.00% # Type of FU issued
system.cpu0.iq.FU_type_0::InstPrefetch              0      0.00%    100.00% # Type of FU issued
system.cpu0.iq.FU_type_0::total               6511296                       # Type of FU issued
system.cpu0.iq.rate                          1.301855                       # Inst issue rate
system.cpu0.iq.fu_busy_cnt                     108936                       # FU busy when requested
system.cpu0.iq.fu_busy_rate                  0.016730                       # FU busy rate (busy events/executed inst)
system.cpu0.iq.int_inst_queue_reads          17795399                       # Number of integer instruction queue reads
system.cpu0.iq.int_inst_queue_writes          7158528                       # Number of integer instruction queue writes
system.cpu0.iq.int_inst_queue_wakeup_accesses      6010465                       # Number of integer instruction queue wakeup accesses
system.cpu0.iq.fp_inst_queue_reads             303240                       # Number of floating instruction queue reads
system.cpu0.iq.fp_inst_queue_writes            127911                       # Number of floating instruction queue writes
system.cpu0.iq.fp_inst_queue_wakeup_accesses       126032                       # Number of floating instruction queue wakeup accesses
system.cpu0.iq.int_alu_accesses               5914418                       # Number of integer alu accesses
system.cpu0.iq.fp_alu_accesses                 155878                       # Number of floating point alu accesses
system.cpu0.iew.lsq.thread0.forwLoads           12864                       # Number of loads that had data forwarded from stores
system.cpu0.iew.lsq.thread0.invAddrLoads            0                       # Number of loads ignored due to an invalid address
system.cpu0.iew.lsq.thread0.squashedLoads       114278                       # Number of loads squashed
system.cpu0.iew.lsq.thread0.ignoredResponses           10                       # Number of memory responses ignored because the instruction is squashed
system.cpu0.iew.lsq.thread0.memOrderViolation           18                       # Number of memory ordering violations
system.cpu0.iew.lsq.thread0.squashedStores        20709                       # Number of stores squashed
system.cpu0.iew.lsq.thread0.invAddrSwpfs            0                       # Number of software prefetches ignored due to an invalid address
system.cpu0.iew.lsq.thread0.blockedLoads            0                       # Number of blocked loads due to partial load-store forwarding
system.cpu0.iew.lsq.thread0.rescheduledLoads            2                       # Number of loads that were rescheduled
system.cpu0.iew.lsq.thread0.cacheBlocked       344373                       # Number of times an access to memory failed due to the cache being blocked
system.cpu0.iew.iewIdleCycles                       0                       # Number of cycles IEW is idle
system.cpu0.iew.iewSquashCycles                257114                       # Number of cycles IEW is squashing
system.cpu0.iew.iewBlockCycles                 200104                       # Number of cycles IEW is blocking
system.cpu0.iew.iewUnblockCycles               185392                       # Number of cycles IEW is unblocking
system.cpu0.iew.iewDispatchedInsts            6432173                       # Number of instructions dispatched to IQ
system.cpu0.iew.iewDispSquashedInsts          1969147                       # Number of squashed instructions skipped by dispatch
system.cpu0.iew.iewDispLoadInsts               479938                       # Number of dispatched load instructions
system.cpu0.iew.iewDispStoreInsts              448763                       # Number of dispatched store instructions
system.cpu0.iew.iewDispNonSpecInsts                37                       # Number of dispatched non-speculative instructions
system.cpu0.iew.iewIQFullEvents                  2370                       # Number of times the IQ has become full, causing a stall
system.cpu0.iew.iewLSQFullEvents               182292                       # Number of times the LSQ has become full, causing a stall
system.cpu0.iew.memOrderViolationEvents            18                       # Number of memory order violations
system.cpu0.iew.predictedTakenIncorrect          1106                       # Number of branches that were predicted taken incorrectly
system.cpu0.iew.predictedNotTakenIncorrect       256175                       # Number of branches that were predicted not taken incorrectly
system.cpu0.iew.branchMispredicts              257281                       # Number of branch mispredicts detected at execute
system.cpu0.iew.iewExecutedInsts              6489525                       # Number of executed instructions
system.cpu0.iew.iewExecLoadInsts               741356                       # Number of load instructions executed
system.cpu0.iew.iewExecSquashedInsts            21771                       # Number of squashed instructions skipped in execute
system.cpu0.iew.exec_swp                            0                       # number of swp insts executed
system.cpu0.iew.exec_nop                            0                       # number of nop insts executed
system.cpu0.iew.exec_refs                     1185145                       # number of memory reference insts executed
system.cpu0.iew.exec_branches                  860737                       # Number of branches executed
system.cpu0.iew.exec_stores                    443789                       # Number of stores executed
system.cpu0.iew.exec_rate                    1.297502                       # Inst execution rate
system.cpu0.iew.wb_sent                       6136762                       # cumulative count of insts sent to commit
system.cpu0.iew.wb_count                      6136497                       # cumulative count of insts written-back
system.cpu0.iew.wb_producers                  3887778                       # num instructions producing a value
system.cpu0.iew.wb_consumers                  6938131                       # num instructions consuming a value
system.cpu0.iew.wb_penalized                        0                       # number of instrctions required to write to 'other' IQ
system.cpu0.iew.wb_rate                      1.226918                       # insts written-back per cycle
system.cpu0.iew.wb_fanout                    0.560349                       # average fanout of values written-back
system.cpu0.iew.wb_penalized_rate                   0                       # fraction of instructions written-back that wrote to 'other' IQ
system.cpu0.commit.commitSquashedInsts         854253                       # The number of squashed insts skipped by commit
system.cpu0.commit.commitNonSpecStalls             26                       # The number of times commit has been forced to stall to communicate backwards
system.cpu0.commit.branchMispredicts           257097                       # The number of times a branch was mispredicted
system.cpu0.commit.committed_per_cycle::samples      4635682                       # Number of insts commited each cycle
system.cpu0.commit.committed_per_cycle::mean     1.203258                       # Number of insts commited each cycle
[...]
system.ruby.DMA_Controller.BUSY_WR.All_Acks          512      0.00%      0.00%
system.ruby.L1Cache_Controller.Load      |      387063    100.00%    100.00% |           0      0.00%    100.00% |           0      0.00%    100.00% |           0      0.00%    100.00% |           0      0.00%    100.00%
system.ruby.L1Cache_Controller.Load::total       387063                      
system.ruby.L1Cache_Controller.Ifetch    |      849015    100.00%    100.00% |           0      0.00%    100.00% |           0      0.00%    100.00% |           0      0.00%    100.00% |           0      0.00%    100.00%
system.ruby.L1Cache_Controller.Ifetch::total       849015                      
system.ruby.L1Cache_Controller.Store     |      428133    100.00%    100.00% |           0      0.00%    100.00% |           0      0.00%    100.00% |           0      0.00%    100.00% |           1      0.00%    100.00%
system.ruby.L1Cache_Controller.Store::total       428134                      
system.ruby.L1Cache_Controller.L1_Replacement |        1113    100.00%    100.00% |           0      0.00%    100.00% |           0      0.00%    100.00% |           0      0.00%    100.00% |           0      0.00%    100.00%
system.ruby.L1Cache_Controller.L1_Replacement::total         1113                      
system.ruby.L1Cache_Controller.Fwd_GETX  |           9    100.00%    100.00% |           0      0.00%    100.00% |           0      0.00%    100.00% |           0      0.00%    100.00% |           0      0.00%    100.00%
system.ruby.L1Cache_Controller.Fwd_GETX::total            9                      
system.ruby.L1Cache_Controller.Fwd_GETS  |           0      0.00%      0.00% |           0      0.00%      0.00% |           0      0.00%      0.00% |           0      0.00%      0.00% |           4    100.00%    100.00%
system.ruby.L1Cache_Controller.Fwd_GETS::total            4                      
system.ruby.L1Cache_Controller.Fwd_DMA   |         480    100.00%    100.00% |           0      0.00%    100.00% |           0      0.00%    100.00% |           0      0.00%    100.00% |           0      0.00%    100.00%
system.ruby.L1Cache_Controller.Fwd_DMA::total          480                      
system.ruby.L1Cache_Controller.Ack       |           0      0.00%      0.00% |           0      0.00%      0.00% |           0      0.00%      0.00% |           0      0.00%      0.00% |           1    100.00%    100.00%
system.ruby.L1Cache_Controller.Ack::total            1                      
system.ruby.L1Cache_Controller.Data      |        1123    100.00%    100.00% |           0      0.00%    100.00% |           0      0.00%    100.00% |           0      0.00%    100.00% |           0      0.00%    100.00%
system.ruby.L1Cache_Controller.Data::total         1123                      
system.ruby.L1Cache_Controller.Exclusive_Data |        1823     99.95%     99.95% |           0      0.00%     99.95% |           0      0.00%     99.95% |           0      0.00%     99.95% |           1      0.05%    100.00%
system.ruby.L1Cache_Controller.Exclusive_Data::total         1824                      
system.ruby.L1Cache_Controller.Writeback_Ack |          36    100.00%    100.00% |           0      0.00%    100.00% |           0      0.00%    100.00% |           0      0.00%    100.00% |           0      0.00%    100.00%
system.ruby.L1Cache_Controller.Writeback_Ack::total           36                      
system.ruby.L1Cache_Controller.Writeback_Ack_Data |        1025    100.00%    100.00% |           0      0.00%    100.00% |           0      0.00%    100.00% |           0      0.00%    100.00% |           0      0.00%    100.00%
system.ruby.L1Cache_Controller.Writeback_Ack_Data::total         1025                      
system.ruby.L1Cache_Controller.All_acks  |        1776     99.94%     99.94% |           0      0.00%     99.94% |           0      0.00%     99.94% |           0      0.00%     99.94% |           1      0.06%    100.00%
system.ruby.L1Cache_Controller.All_acks::total         1777                      
system.ruby.L1Cache_Controller.Use_Timeout |        1822     99.95%     99.95% |           0      0.00%     99.95% |           0      0.00%     99.95% |           0      0.00%     99.95% |           1      0.05%    100.00%
system.ruby.L1Cache_Controller.Use_Timeout::total         1823                      
system.ruby.L1Cache_Controller.I.Load    |         690    100.00%    100.00% |           0      0.00%    100.00% |           0      0.00%    100.00% |           0      0.00%    100.00% |           0      0.00%    100.00%
system.ruby.L1Cache_Controller.I.Load::total          690                      
system.ruby.L1Cache_Controller.I.Ifetch  |         481    100.00%    100.00% |           0      0.00%    100.00% |           0      0.00%    100.00% |           0      0.00%    100.00% |           0      0.00%    100.00%
system.ruby.L1Cache_Controller.I.Ifetch::total          481                      
system.ruby.L1Cache_Controller.I.Store   |        1247     99.92%     99.92% |           0      0.00%     99.92% |           0      0.00%     99.92% |           0      0.00%     99.92% |           1      0.08%    100.00%
system.ruby.L1Cache_Controller.I.Store::total         1248                      
system.ruby.L1Cache_Controller.S.Load    |       79059    100.00%    100.00% |           0      0.00%    100.00% |           0      0.00%    100.00% |           0      0.00%    100.00% |           0      0.00%    100.00%
system.ruby.L1Cache_Controller.S.Load::total        79059                      
system.ruby.L1Cache_Controller.S.Ifetch  |      848522    100.00%    100.00% |           0      0.00%    100.00% |           0      0.00%    100.00% |           0      0.00%    100.00% |           0      0.00%    100.00%
system.ruby.L1Cache_Controller.S.Ifetch::total       848522                      
system.ruby.L1Cache_Controller.S.Store   |         529    100.00%    100.00% |           0      0.00%    100.00% |           0      0.00%    100.00% |           0      0.00%    100.00% |           0      0.00%    100.00%
system.ruby.L1Cache_Controller.S.Store::total          529                      
system.ruby.L1Cache_Controller.S.L1_Replacement |         235    100.00%    100.00% |           0      0.00%    100.00% |           0      0.00%    100.00% |           0      0.00%    100.00% |           0      0.00%    100.00%
system.ruby.L1Cache_Controller.S.L1_Replacement::total          235                      
system.ruby.L1Cache_Controller.M.Load    |        9201    100.00%    100.00% |           0      0.00%    100.00% |           0      0.00%    100.00% |           0      0.00%    100.00% |           0      0.00%    100.00%
system.ruby.L1Cache_Controller.M.Load::total         9201                      
system.ruby.L1Cache_Controller.M.Store   |          27    100.00%    100.00% |           0      0.00%    100.00% |           0      0.00%    100.00% |           0      0.00%    100.00% |           0      0.00%    100.00%
system.ruby.L1Cache_Controller.M.Store::total           27                      
system.ruby.L1Cache_Controller.M.L1_Replacement |           8    100.00%    100.00% |           0      0.00%    100.00% |           0      0.00%    100.00% |           0      0.00%    100.00% |           0      0.00%    100.00%
system.ruby.L1Cache_Controller.M.L1_Replacement::total            8                      
system.ruby.L1Cache_Controller.M_W.Load  |          24    100.00%    100.00% |           0      0.00%    100.00% |           0      0.00%    100.00% |           0      0.00%    100.00% |           0      0.00%    100.00%
system.ruby.L1Cache_Controller.M_W.Load::total           24                      
system.ruby.L1Cache_Controller.M_W.Store |           3    100.00%    100.00% |           0      0.00%    100.00% |           0      0.00%    100.00% |           0      0.00%    100.00% |           0      0.00%    100.00%
system.ruby.L1Cache_Controller.M_W.Store::total            3                      
system.ruby.L1Cache_Controller.M_W.Use_Timeout |          44    100.00%    100.00% |           0      0.00%    100.00% |           0      0.00%    100.00% |           0      0.00%    100.00% |           0      0.00%    100.00%
system.ruby.L1Cache_Controller.M_W.Use_Timeout::total           44                      
system.ruby.L1Cache_Controller.MM.Load   |      295509    100.00%    100.00% |           0      0.00%    100.00% |           0      0.00%    100.00% |           0      0.00%    100.00% |           0      0.00%    100.00%
system.ruby.L1Cache_Controller.MM.Load::total       295509                      
system.ruby.L1Cache_Controller.MM.Store  |      418741    100.00%    100.00% |           0      0.00%    100.00% |           0      0.00%    100.00% |           0      0.00%    100.00% |           0      0.00%    100.00%
system.ruby.L1Cache_Controller.MM.Store::total       418741                      
system.ruby.L1Cache_Controller.MM.L1_Replacement |         818    100.00%    100.00% |           0      0.00%    100.00% |           0      0.00%    100.00% |           0      0.00%    100.00% |           0      0.00%    100.00%
system.ruby.L1Cache_Controller.MM.L1_Replacement::total          818                      
system.ruby.L1Cache_Controller.MM.Fwd_GETX |           9    100.00%    100.00% |           0      0.00%    100.00% |           0      0.00%    100.00% |           0      0.00%    100.00% |           0      0.00%    100.00%
system.ruby.L1Cache_Controller.MM.Fwd_GETX::total            9                      
system.ruby.L1Cache_Controller.MM.Fwd_GETS |           0      0.00%      0.00% |           0      0.00%      0.00% |           0      0.00%      0.00% |           0      0.00%      0.00% |           1    100.00%    100.00%
system.ruby.L1Cache_Controller.MM.Fwd_GETS::total            1                      
system.ruby.L1Cache_Controller.MM.Fwd_DMA |         480    100.00%    100.00% |           0      0.00%    100.00% |           0      0.00%    100.00% |           0      0.00%    100.00% |           0      0.00%    100.00%
system.ruby.L1Cache_Controller.MM.Fwd_DMA::total          480                      
system.ruby.L1Cache_Controller.MM_W.Load |        2544    100.00%    100.00% |           0      0.00%    100.00% |           0      0.00%    100.00% |           0      0.00%    100.00% |           0      0.00%    100.00%
system.ruby.L1Cache_Controller.MM_W.Load::total         2544                      
system.ruby.L1Cache_Controller.MM_W.Store |        7569    100.00%    100.00% |           0      0.00%    100.00% |           0      0.00%    100.00% |           0      0.00%    100.00% |           0      0.00%    100.00%
system.ruby.L1Cache_Controller.MM_W.Store::total         7569                      
system.ruby.L1Cache_Controller.MM_W.L1_Replacement |           1    100.00%    100.00% |           0      0.00%    100.00% |           0      0.00%    100.00% |           0      0.00%    100.00% |           0      0.00%    100.00%
system.ruby.L1Cache_Controller.MM_W.L1_Replacement::total            1                      
system.ruby.L1Cache_Controller.MM_W.Fwd_GETS |           0      0.00%      0.00% |           0      0.00%      0.00% |           0      0.00%      0.00% |           0      0.00%      0.00% |           3    100.00%    100.00%
system.ruby.L1Cache_Controller.MM_W.Fwd_GETS::total            3                      
system.ruby.L1Cache_Controller.MM_W.Use_Timeout |        1778     99.94%     99.94% |           0      0.00%     99.94% |           0      0.00%     99.94% |           0      0.00%     99.94% |           1      0.06%    100.00%
system.ruby.L1Cache_Controller.MM_W.Use_Timeout::total         1779                      
system.ruby.L1Cache_Controller.IM.Ack    |           0      0.00%      0.00% |           0      0.00%      0.00% |           0      0.00%      0.00% |           0      0.00%      0.00% |           1    100.00%    100.00%
system.ruby.L1Cache_Controller.IM.Ack::total            1                      
system.ruby.L1Cache_Controller.IM.Exclusive_Data |        1247     99.92%     99.92% |           0      0.00%     99.92% |           0      0.00%     99.92% |           0      0.00%     99.92% |           1      0.08%    100.00%
system.ruby.L1Cache_Controller.IM.Exclusive_Data::total         1248                      
system.ruby.L1Cache_Controller.SM.Exclusive_Data |         529    100.00%    100.00% |           0      0.00%    100.00% |           0      0.00%    100.00% |           0      0.00%    100.00% |           0      0.00%    100.00%
system.ruby.L1Cache_Controller.SM.Exclusive_Data::total          529                      
system.ruby.L1Cache_Controller.OM.All_acks |        1776     99.94%     99.94% |           0      0.00%     99.94% |           0      0.00%     99.94% |           0      0.00%     99.94% |           1      0.06%    100.00%
system.ruby.L1Cache_Controller.OM.All_acks::total         1777                      
system.ruby.L1Cache_Controller.IS.L1_Replacement |          51    100.00%    100.00% |           0      0.00%    100.00% |           0      0.00%    100.00% |           0      0.00%    100.00% |           0      0.00%    100.00%
system.ruby.L1Cache_Controller.IS.L1_Replacement::total           51                      
system.ruby.L1Cache_Controller.IS.Data   |        1123    100.00%    100.00% |           0      0.00%    100.00% |           0      0.00%    100.00% |           0      0.00%    100.00% |           0      0.00%    100.00%
system.ruby.L1Cache_Controller.IS.Data::total         1123                      
system.ruby.L1Cache_Controller.IS.Exclusive_Data |          47    100.00%    100.00% |           0      0.00%    100.00% |           0      0.00%    100.00% |           0      0.00%    100.00% |           0      0.00%    100.00%
system.ruby.L1Cache_Controller.IS.Exclusive_Data::total           47                      
system.ruby.L1Cache_Controller.SI.Load   |          12    100.00%    100.00% |           0      0.00%    100.00% |           0      0.00%    100.00% |           0      0.00%    100.00% |           0      0.00%    100.00%
system.ruby.L1Cache_Controller.SI.Load::total           12                      
system.ruby.L1Cache_Controller.SI.Ifetch |          12    100.00%    100.00% |           0      0.00%    100.00% |           0      0.00%    100.00% |           0      0.00%    100.00% |           0      0.00%    100.00%
system.ruby.L1Cache_Controller.SI.Ifetch::total           12                      
system.ruby.L1Cache_Controller.SI.Writeback_Ack |          36    100.00%    100.00% |           0      0.00%    100.00% |           0      0.00%    100.00% |           0      0.00%    100.00% |           0      0.00%    100.00%
system.ruby.L1Cache_Controller.SI.Writeback_Ack::total           36                      
system.ruby.L1Cache_Controller.SI.Writeback_Ack_Data |         199    100.00%    100.00% |           0      0.00%    100.00% |           0      0.00%    100.00% |           0      0.00%    100.00% |           0      0.00%    100.00%
system.ruby.L1Cache_Controller.SI.Writeback_Ack_Data::total          199                      
system.ruby.L1Cache_Controller.MI.Load   |          24    100.00%    100.00% |           0      0.00%    100.00% |           0      0.00%    100.00% |           0      0.00%    100.00% |           0      0.00%    100.00%
system.ruby.L1Cache_Controller.MI.Load::total           24                      
system.ruby.L1Cache_Controller.MI.Store  |          17    100.00%    100.00% |           0      0.00%    100.00% |           0      0.00%    100.00% |           0      0.00%    100.00% |           0      0.00%    100.00%
system.ruby.L1Cache_Controller.MI.Store::total           17                      
system.ruby.L1Cache_Controller.MI.Writeback_Ack_Data |         826    100.00%    100.00% |           0      0.00%    100.00% |           0      0.00%    100.00% |           0      0.00%    100.00% |           0      0.00%    100.00%
system.ruby.L1Cache_Controller.MI.Writeback_Ack_Data::total          826                      
system.ruby.L2Cache_Controller.L1_GETS           1183      0.00%      0.00%
system.ruby.L2Cache_Controller.L1_GETX           1781      0.00%      0.00%
system.ruby.L2Cache_Controller.L1_PUTX            826      0.00%      0.00%
system.ruby.L2Cache_Controller.L1_PUTS_only          235      0.00%      0.00%
system.ruby.L2Cache_Controller.Fwd_GETX           512      0.00%      0.00%
system.ruby.L2Cache_Controller.Fwd_DMA            513      0.00%      0.00%
system.ruby.L2Cache_Controller.All_Acks          1651      0.00%      0.00%
system.ruby.L2Cache_Controller.Data              2693      0.00%      0.00%
system.ruby.L2Cache_Controller.Data_Exclusive            8      0.00%      0.00%
system.ruby.L2Cache_Controller.L1_WBCLEANDATA          199      0.00%      0.00%
system.ruby.L2Cache_Controller.L1_WBDIRTYDATA          826      0.00%      0.00%
system.ruby.L2Cache_Controller.Unblock           1159      0.00%      0.00%
system.ruby.L2Cache_Controller.Exclusive_Unblock         1823      0.00%      0.00%
system.ruby.L2Cache_Controller.DmaAck             480      0.00%      0.00%
system.ruby.L2Cache_Controller.NP.L1_GETS         1043      0.00%      0.00%
system.ruby.L2Cache_Controller.NP.L1_GETX         1122      0.00%      0.00%
system.ruby.L2Cache_Controller.ILS.L1_GETX          523      0.00%      0.00%
system.ruby.L2Cache_Controller.ILS.L1_PUTS_only          199      0.00%      0.00%
system.ruby.L2Cache_Controller.ILX.L1_GETS            1      0.00%      0.00%
system.ruby.L2Cache_Controller.ILX.L1_GETX            1      0.00%      0.00%
system.ruby.L2Cache_Controller.ILX.L1_PUTX          826      0.00%      0.00%
system.ruby.L2Cache_Controller.ILX.Fwd_GETX            8      0.00%      0.00%
system.ruby.L2Cache_Controller.ILX.Fwd_DMA          480      0.00%      0.00%
system.ruby.L2Cache_Controller.S.L1_GETS           81      0.00%      0.00%
system.ruby.L2Cache_Controller.SLS.L1_GETX            6      0.00%      0.00%
system.ruby.L2Cache_Controller.SLS.L1_PUTS_only           36      0.00%      0.00%
system.ruby.L2Cache_Controller.M.L1_GETS           46      0.00%      0.00%
system.ruby.L2Cache_Controller.M.L1_GETX          125      0.00%      0.00%
system.ruby.L2Cache_Controller.M.Fwd_GETX          504      0.00%      0.00%
system.ruby.L2Cache_Controller.M.Fwd_DMA           33      0.00%      0.00%
system.ruby.L2Cache_Controller.IFGX.Data_Exclusive            8      0.00%      0.00%
system.ruby.L2Cache_Controller.IW.L1_WBCLEANDATA          199      0.00%      0.00%
system.ruby.L2Cache_Controller.SW.Unblock           36      0.00%      0.00%
system.ruby.L2Cache_Controller.ILXW.L1_GETS           11      0.00%      0.00%
system.ruby.L2Cache_Controller.ILXW.L1_GETX            4      0.00%      0.00%
system.ruby.L2Cache_Controller.ILXW.L1_WBDIRTYDATA          826      0.00%      0.00%
system.ruby.L2Cache_Controller.IFLOXX.L1_GETS            1      0.00%      0.00%
system.ruby.L2Cache_Controller.IFLOXX.Exclusive_Unblock            2      0.00%      0.00%
system.ruby.L2Cache_Controller.IGS.Data          1042      0.00%      0.00%
system.ruby.L2Cache_Controller.IGS.Unblock         1042      0.00%      0.00%
system.ruby.L2Cache_Controller.IGM.Data          1122      0.00%      0.00%
system.ruby.L2Cache_Controller.IGMLS.Data          529      0.00%      0.00%
system.ruby.L2Cache_Controller.IGMO.All_Acks         1651      0.00%      0.00%
system.ruby.L2Cache_Controller.IGMO.Exclusive_Unblock         1650      0.00%      0.00%
system.ruby.L2Cache_Controller.MM.Exclusive_Unblock          125      0.00%      0.00%
system.ruby.L2Cache_Controller.SS.Unblock           81      0.00%      0.00%
system.ruby.L2Cache_Controller.OO.Exclusive_Unblock           46      0.00%      0.00%
system.ruby.L2Cache_Controller.ILXD.DmaAck          480      0.00%      0.00%

---------- End Simulation Statistics   ----------
